<?xml version="1.0" encoding="utf-8"?>
<!DOCTYPE plans SYSTEM "http://www.matsim.org/files/dtd/plans_v4.dtd">

<plans>

<!-- ====================================================================== -->

	<person id="1" employed="no">
		<travelcard type="BerlinAB" />

		<travelcard type="bahncard" />

	</person>

<!-- ====================================================================== -->

</plans>
