<?xml version="1.0" encoding="UTF-8"?>
<!DOCTYPE network SYSTEM "http://www.matsim.org/files/dtd/network_v2.dtd">
<network>

	<attributes>
		<attribute name="coordinateReferenceSystem" class="java.lang.String">Atlantis</attribute>
	</attributes>
<!-- ====================================================================== -->

	<nodes>
		<node id="10" x="474683.953" y="4203036.963" z="0.0" >
		</node>
		<node id="100" x="476744.606" y="4202023.905" z="0.0" >
		</node>
		<node id="1000" x="477943.198" y="4203013.189" z="0.0" >
		</node>
		<node id="101" x="476604.423" y="4201994.393" z="0.0" >
		</node>
		<node id="102" x="476434.729" y="4201931.68" z="0.0" >
		</node>
		<node id="103" x="476275.706" y="4202051.804" z="0.0" >
		</node>
		<node id="108" x="476408.605" y="4202709.738" z="0.0" >
		</node>
		<node id="109" x="476412.7" y="4202750.69" z="0.0" >
		</node>
		<node id="11" x="474160.918" y="4202630.638" z="0.0" >
		</node>
		<node id="110" x="476421.709" y="4202799.014" z="0.0" >
		</node>
		<node id="111" x="476441.366" y="4202935.793" z="0.0" >
		</node>
		<node id="112" x="476339.805" y="4202759.7" z="0.0" >
		</node>
		<node id="113" x="476351.272" y="4202815.394" z="0.0" >
		</node>
		<node id="114" x="476373.386" y="4202950.536" z="0.0" >
		</node>
		<node id="115" x="476390.586" y="4203048.002" z="0.0" >
		</node>
		<node id="116" x="476203.026" y="4202743.319" z="0.0" >
		</node>
		<node id="117" x="476212.035" y="4202831.775" z="0.0" >
		</node>
		<node id="118" x="476069.932" y="4202706.872" z="0.0" >
		</node>
		<node id="119" x="475895.476" y="4202789.595" z="0.0" >
		</node>
		<node id="12" x="476981.418" y="4202202.7" z="0.0" >
		</node>
		<node id="120" x="475881.553" y="4202735.538" z="0.0" >
		</node>
		<node id="121" x="475913.495" y="4202909.993" z="0.0" >
		</node>
		<node id="122" x="475924.143" y="4202959.136" z="0.0" >
		</node>
		<node id="123" x="476256.673" y="4202824.813" z="0.0" >
		</node>
		<node id="124" x="476305.815" y="4202820.718" z="0.0" >
		</node>
		<node id="125" x="476365.605" y="4202757.652" z="0.0" >
		</node>
		<node id="126" x="476330.386" y="4202958.317" z="0.0" >
		</node>
		<node id="127" x="475957.723" y="4203101.649" z="0.0" >
		</node>
		<node id="128" x="476242.749" y="4203072.982" z="0.0" >
		</node>
		<node id="129" x="475922.505" y="4203087.725" z="0.0" >
		</node>
		<node id="13" x="476296.285" y="4202183.249" z="0.0" >
		</node>
		<node id="130" x="475835.687" y="4203141.782" z="0.0" >
		</node>
		<node id="131" x="475815.211" y="4203044.316" z="0.0" >
		</node>
		<node id="132" x="475932.538" y="4203008.688" z="0.0" >
		</node>
		<node id="133" x="476246.844" y="4202750.895" z="0.0" >
		</node>
		<node id="134" x="476302.539" y="4202756.219" z="0.0" >
		</node>
		<node id="135" x="475870.905" y="4203330.365" z="0.0" >
		</node>
		<node id="136" x="475898.753" y="4203463.05" z="0.0" >
		</node>
		<node id="137" x="475931.514" y="4203645.696" z="0.0" >
		</node>
		<node id="138" x="476175.588" y="4203162.462" z="0.0" >
		</node>
		<node id="139" x="476223.092" y="4203100.215" z="0.0" >
		</node>
		<node id="14" x="477061.386" y="4202855.414" z="0.0" >
		</node>
		<node id="140" x="476033.894" y="4203298.423" z="0.0" >
		</node>
		<node id="141" x="476127.265" y="4203286.137" z="0.0" >
		</node>
		<node id="142" x="476145.284" y="4203407.355" z="0.0" >
		</node>
		<node id="143" x="476169.036" y="4203273.033" z="0.0" >
		</node>
		<node id="144" x="476019.97" y="4203436.841" z="0.0" >
		</node>
		<node id="145" x="475988.847" y="4203308.251" z="0.0" >
		</node>
		<node id="146" x="476054.37" y="4203622.763" z="0.0" >
		</node>
		<node id="147" x="476251.759" y="4203146.082" z="0.0" >
		</node>
		<node id="148" x="476217.359" y="4203194.405" z="0.0" >
		</node>
		<node id="149" x="476314.006" y="4203154.272" z="0.0" >
		</node>
		<node id="150" x="476334.891" y="4203166.148" z="0.0" >
		</node>
		<node id="151" x="476297.215" y="4203063.768" z="0.0" >
		</node>
		<node id="152" x="476332.025" y="4203058.035" z="0.0" >
		</node>
		<node id="153" x="475854.524" y="4203243.547" z="0.0" >
		</node>
		<node id="154" x="476042.085" y="4203551.506" z="0.0" >
		</node>
		<node id="155" x="475961.819" y="4203758.518" z="0.0" >
		</node>
		<node id="156" x="475726.55" y="4202671.653" z="0.0" >
		</node>
		<node id="157" x="475731.054" y="4202699.5" z="0.0" >
		</node>
		<node id="158" x="475788.797" y="4202681.072" z="0.0" >
		</node>
		<node id="159" x="475784.292" y="4202663.463" z="0.0" >
		</node>
		<node id="160" x="475733.921" y="4202740.862" z="0.0" >
		</node>
		<node id="161" x="475712.523" y="4202743.165" z="0.0" >
		</node>
		<node id="162" x="475650.379" y="4202751.1" z="0.0" >
		</node>
		<node id="163" x="475655.293" y="4202797.785" z="0.0" >
		</node>
		<node id="164" x="475733.307" y="4202796.864" z="0.0" >
		</node>
		<node id="165" x="475829.749" y="4202777.719" z="0.0" >
		</node>
		<node id="166" x="475808.044" y="4202727.348" z="0.0" >
		</node>
		<node id="167" x="475760.335" y="4202984.628" z="0.0" >
		</node>
		<node id="168" x="475718.973" y="4202992.409" z="0.0" >
		</node>
		<node id="169" x="475690.717" y="4202997.733" z="0.0" >
		</node>
		<node id="17" x="475802.925" y="4202976.54" z="0.0" >
		</node>
		<node id="170" x="475583.218" y="4203014.728" z="0.0" >
		</node>
		<node id="171" x="475509.709" y="4203027.218" z="0.0" >
		</node>
		<node id="172" x="475450.328" y="4203037.866" z="0.0" >
		</node>
		<node id="173" x="475821.763" y="4202757.14" z="0.0" >
		</node>
		<node id="174" x="475374.311" y="4203091.871" z="0.0" >
		</node>
		<node id="175" x="475359.159" y="4203114.805" z="0.0" >
		</node>
		<node id="176" x="475248.998" y="4203288.85" z="0.0" >
		</node>
		<node id="177" x="475151.533" y="4203233.156" z="0.0" >
		</node>
		<node id="178" x="475278.484" y="4203241.346" z="0.0" >
		</node>
		<node id="179" x="475308.788" y="4203178.28" z="0.0" >
		</node>
		<node id="18" x="476088.8" y="4203780.451" z="0.0" >
		</node>
		<node id="180" x="475393.149" y="4203151.252" z="0.0" >
		</node>
		<node id="181" x="475332.95" y="4203270.832" z="0.0" >
		</node>
		<node id="182" x="475398.063" y="4203306.869" z="0.0" >
		</node>
		<node id="183" x="475461.13" y="4203217.594" z="0.0" >
		</node>
		<node id="184" x="475532.795" y="4203272.47" z="0.0" >
		</node>
		<node id="185" x="475501.672" y="4203365.84" z="0.0" >
		</node>
		<node id="186" x="475462.358" y="4203414.983" z="0.0" >
		</node>
		<node id="187" x="475554.91" y="4203396.145" z="0.0" >
		</node>
		<node id="188" x="475526.243" y="4203446.925" z="0.0" >
		</node>
		<node id="189" x="475597.5" y="4203315.879" z="0.0" >
		</node>
		<node id="19" x="477144.939" y="4202314.214" z="0.0" >
		</node>
		<node id="190" x="475575.386" y="4203360.107" z="0.0" >
		</node>
		<node id="191" x="475522.967" y="4203335.536" z="0.0" >
		</node>
		<node id="192" x="475433.692" y="4203192.204" z="0.0" >
		</node>
		<node id="193" x="475569.447" y="4203298.884" z="0.0" >
		</node>
		<node id="194" x="475636.199" y="4203343.726" z="0.0" >
		</node>
		<node id="195" x="475631.285" y="4203376.897" z="0.0" >
		</node>
		<node id="196" x="475536.276" y="4203532.515" z="0.0" >
		</node>
		<node id="197" x="475641.933" y="4203448.973" z="0.0" >
		</node>
		<node id="198" x="475700.903" y="4203432.592" z="0.0" >
		</node>
		<node id="199" x="475657.494" y="4203471.906" z="0.0" >
		</node>
		<node id="20" x="475106.581" y="4203312.924" z="0.0" >
		</node>
		<node id="200" x="475641.113" y="4203420.306" z="0.0" >
		</node>
		<node id="2000" x="476220.639" y="4204443.971" z="0.0" >
		</node>
		<node id="201" x="475690.256" y="4203408.84" z="0.0" >
		</node>
		<node id="202" x="475703.36" y="4203457.163" z="0.0" >
		</node>
		<node id="203" x="475715.646" y="4203361.335" z="0.0" >
		</node>
		<node id="204" x="475727.113" y="4203427.678" z="0.0" >
		</node>
		<node id="205" x="475768.065" y="4203353.145" z="0.0" >
		</node>
		<node id="206" x="475821.302" y="4203343.317" z="0.0" >
		</node>
		<node id="207" x="475732.846" y="4203495.658" z="0.0" >
		</node>
		<node id="208" x="475795.093" y="4203480.096" z="0.0" >
		</node>
		<node id="209" x="475664.047" y="4203513.677" z="0.0" >
		</node>
		<node id="21" x="475202.759" y="4203366.956" z="0.0" >
		</node>
		<node id="210" x="475758.236" y="4203607.866" z="0.0" >
		</node>
		<node id="211" x="475563.305" y="4203466.172" z="0.0" >
		</node>
		<node id="212" x="475693.532" y="4203620.152" z="0.0" >
		</node>
		<node id="213" x="475815.569" y="4203595.581" z="0.0" >
		</node>
		<node id="214" x="475840.959" y="4203474.363" z="0.0" >
		</node>
		<node id="215" x="475856.521" y="4203566.914" z="0.0" >
		</node>
		<node id="216" x="475880.273" y="4203655.371" z="0.0" >
		</node>
		<node id="217" x="475830.312" y="4203662.742" z="0.0" >
		</node>
		<node id="218" x="475316.057" y="4203326.219" z="0.0" >
		</node>
		<node id="219" x="475367.861" y="4203356.728" z="0.0" >
		</node>
		<node id="22" x="475270.84" y="4203406.4" z="0.0" >
		</node>
		<node id="220" x="475810.04" y="4203574.337" z="0.0" >
		</node>
		<node id="221" x="475777.688" y="4203417.9" z="0.0" >
		</node>
		<node id="222" x="475646.692" y="4203087.672" z="0.0" >
		</node>
		<node id="223" x="475658.253" y="4203103.857" z="0.0" >
		</node>
		<node id="224" x="475677.521" y="4203073.414" z="0.0" >
		</node>
		<node id="225" x="475722.994" y="4203103.472" z="0.0" >
		</node>
		<node id="226" x="475764.228" y="4203018.692" z="0.0" >
		</node>
		<node id="227" x="475682.916" y="4203161.662" z="0.0" >
		</node>
		<node id="228" x="475704.882" y="4203157.423" z="0.0" >
		</node>
		<node id="229" x="475711.048" y="4203142.779" z="0.0" >
		</node>
		<node id="23" x="475325.953" y="4203437.739" z="0.0" >
		</node>
		<node id="230" x="475719.526" y="4203122.355" z="0.0" >
		</node>
		<node id="231" x="475741.492" y="4203065.706" z="0.0" >
		</node>
		<node id="232" x="475773.091" y="4203142.008" z="0.0" >
		</node>
		<node id="233" x="475764.613" y="4203090.37" z="0.0" >
		</node>
		<node id="234" x="475788.121" y="4203192.106" z="0.0" >
		</node>
		<node id="235" x="475837.833" y="4203250.296" z="0.0" >
		</node>
		<node id="236" x="475704.689" y="4203185.555" z="0.0" >
		</node>
		<node id="237" x="475489.463" y="4203081.121" z="0.0" >
		</node>
		<node id="238" x="475525.688" y="4203113.877" z="0.0" >
		</node>
		<node id="239" x="475564.995" y="4203150.101" z="0.0" >
		</node>
		<node id="24" x="475419.97" y="4203489.61" z="0.0" >
		</node>
		<node id="240" x="475630.507" y="4203194.803" z="0.0" >
		</node>
		<node id="241" x="475680.604" y="4203228.33" z="0.0" >
		</node>
		<node id="242" x="475670.199" y="4203267.252" z="0.0" >
		</node>
		<node id="243" x="475615.092" y="4203238.35" z="0.0" >
		</node>
		<node id="244" x="475551.507" y="4203241.432" z="0.0" >
		</node>
		<node id="245" x="475711.819" y="4203224.091" z="0.0" >
		</node>
		<node id="246" x="475765.77" y="4203283.823" z="0.0" >
		</node>
		<node id="247" x="475822.033" y="4203230.642" z="0.0" >
		</node>
		<node id="248" x="475412.005" y="4203112.721" z="0.0" >
		</node>
		<node id="249" x="475441.678" y="4203133.916" z="0.0" >
		</node>
		<node id="25" x="475482.107" y="4203524.191" z="0.0" >
		</node>
		<node id="250" x="475474.819" y="4203158.579" z="0.0" >
		</node>
		<node id="251" x="475587.924" y="4203219.081" z="0.0" >
		</node>
		<node id="252" x="475550.158" y="4203158.194" z="0.0" >
		</node>
		<node id="253" x="475513.549" y="4203056.843" z="0.0" >
		</node>
		<node id="254" x="475781.032" y="4203299.797" z="0.0" >
		</node>
		<node id="255" x="475797.863" y="4203153.505" z="0.0" >
		</node>
		<node id="256" x="475797.662" y="4203073.355" z="0.0" >
		</node>
		<node id="257" x="475819.335" y="4203066.899" z="0.0" >
		</node>
		<node id="258" x="475360.957" y="4203018.107" z="0.0" >
		</node>
		<node id="259" x="476611.85" y="4202773.883" z="0.0" >
		</node>
		<node id="26" x="475526.414" y="4203549.586" z="0.0" >
		</node>
		<node id="260" x="476593.063" y="4202682.648" z="0.0" >
		</node>
		<node id="261" x="476551.348" y="4202573.83" z="0.0" >
		</node>
		<node id="27" x="475670.681" y="4203628.474" z="0.0" >
		</node>
		<node id="28" x="475770.641" y="4203685.208" z="0.0" >
		</node>
		<node id="29" x="475844.126" y="4203726.273" z="0.0" >
		</node>
		<node id="30" x="475912.071" y="4203760.719" z="0.0" >
		</node>
		<node id="3000" x="475436.087" y="4203916.613" z="0.0" >
		</node>
		<node id="31" x="476014.193" y="4203743.293" z="0.0" >
		</node>
		<node id="32" x="476060.661" y="4203668.728" z="0.0" >
		</node>
		<node id="33" x="476215.194" y="4203443.953" z="0.0" >
		</node>
		<node id="34" x="476276.791" y="4203348.855" z="0.0" >
		</node>
		<node id="35" x="476085.516" y="4203634.147" z="0.0" >
		</node>
		<node id="36" x="476179.533" y="4203701.148" z="0.0" >
		</node>
		<node id="37" x="476254.098" y="4203590.921" z="0.0" >
		</node>
		<node id="38" x="476312.453" y="4203509.872" z="0.0" >
		</node>
		<node id="39" x="476375.131" y="4203199.726" z="0.0" >
		</node>
		<node id="40" x="476475.631" y="4203271.049" z="0.0" >
		</node>
		<node id="4000" x="473988.014" y="4203709.128" z="0.0" >
		</node>
		<node id="41" x="476465.905" y="4203061.402" z="0.0" >
		</node>
		<node id="42" x="476566.406" y="4203130.564" z="0.0" >
		</node>
		<node id="43" x="476420.518" y="4203126.241" z="0.0" >
		</node>
		<node id="44" x="476521.018" y="4203199.726" z="0.0" >
		</node>
		<node id="45" x="476528.583" y="4202972.789" z="0.0" >
		</node>
		<node id="46" x="476630.164" y="4203038.708" z="0.0" >
		</node>
		<node id="47" x="476523.18" y="4202923.079" z="0.0" >
		</node>
		<node id="48" x="476646.374" y="4202905.788" z="0.0" >
		</node>
		<node id="49" x="476327.582" y="4203272.129" z="0.0" >
		</node>
		<node id="50" x="476300.566" y="4203312.113" z="0.0" >
		</node>
		<node id="5000" x="473179.687" y="4202870.543" z="0.0" >
		</node>
		<node id="51" x="476402.147" y="4203372.63" z="0.0" >
		</node>
		<node id="52" x="476157.379" y="4203526.623" z="0.0" >
		</node>
		<node id="53" x="476499.859" y="4202789.345" z="0.0" >
		</node>
		<node id="54" x="476632.147" y="4202771.155" z="0.0" >
		</node>
		<node id="55" x="476477.535" y="4202450.357" z="0.0" >
		</node>
		<node id="56" x="476368.327" y="4202312.57" z="0.0" >
		</node>
		<node id="57" x="476613.131" y="4202679.38" z="0.0" >
		</node>
		<node id="58" x="476565.176" y="4202565.282" z="0.0" >
		</node>
		<node id="59" x="476484.15" y="4202700.05" z="0.0" >
		</node>
		<node id="60" x="476470.921" y="4202615.717" z="0.0" >
		</node>
		<node id="6000" x="474009.627" y="4202490.154" z="0.0" >
		</node>
		<node id="61" x="476437.022" y="4202487.563" z="0.0" >
		</node>
		<node id="62" x="475415.716" y="4202274.464" z="0.0" >
		</node>
		<node id="63" x="475219.334" y="4202880.394" z="0.0" >
		</node>
		<node id="64" x="475367.04" y="4203054.955" z="0.0" >
		</node>
		<node id="65" x="475051.486" y="4203106.988" z="0.0" >
		</node>
		<node id="66" x="476296.761" y="4202257.714" z="0.0" >
		</node>
		<node id="67" x="476137.22" y="4202177.558" z="0.0" >
		</node>
		<node id="68" x="476205.044" y="4202190.66" z="0.0" >
		</node>
		<node id="69" x="476140.303" y="4202349.43" z="0.0" >
		</node>
		<node id="70" x="476200.42" y="4202317.06" z="0.0" >
		</node>
		<node id="7000" x="475755.959" y="4201530.535" z="0.0" >
		</node>
		<node id="71" x="476143.386" y="4202410.703" z="0.0" >
		</node>
		<node id="72" x="476086.352" y="4202517.835" z="0.0" >
		</node>
		<node id="73" x="476055.138" y="4202591.054" z="0.0" >
		</node>
		<node id="74" x="475892.899" y="4202657.336" z="0.0" >
		</node>
		<node id="75" x="475900.607" y="4202690.478" z="0.0" >
		</node>
		<node id="76" x="476089.435" y="4202609.551" z="0.0" >
		</node>
		<node id="77" x="476137.502" y="4202628.089" z="0.0" >
		</node>
		<node id="78" x="476217.539" y="4202643.197" z="0.0" >
		</node>
		<node id="79" x="476316.681" y="4202641.353" z="0.0" >
		</node>
		<node id="8" x="475615.475" y="4203601.063" z="0.0" >
		</node>
		<node id="80" x="476372.477" y="4202633.052" z="0.0" >
		</node>
		<node id="8000" x="476503.464" y="4201016.733" z="0.0" >
		</node>
		<node id="81" x="476395.533" y="4202629.824" z="0.0" >
		</node>
		<node id="82" x="476464.241" y="4202588.784" z="0.0" >
		</node>
		<node id="83" x="476401.067" y="4202579.101" z="0.0" >
		</node>
		<node id="84" x="476322.675" y="4202614.146" z="0.0" >
		</node>
		<node id="85" x="476263.651" y="4202578.639" z="0.0" >
		</node>
		<node id="86" x="476239.212" y="4202572.645" z="0.0" >
		</node>
		<node id="87" x="476313.453" y="4202498.404" z="0.0" >
		</node>
		<node id="88" x="476372.016" y="4202431.54" z="0.0" >
		</node>
		<node id="89" x="476455.941" y="4202420.934" z="0.0" >
		</node>
		<node id="9" x="474962.761" y="4203244.448" z="0.0" >
		</node>
		<node id="90" x="476427.812" y="4202383.122" z="0.0" >
		</node>
		<node id="9000" x="477631.97" y="4201980.086" z="0.0" >
		</node>
		<node id="91" x="476404.295" y="4202353.149" z="0.0" >
		</node>
		<node id="92" x="476363.255" y="4202378.972" z="0.0" >
		</node>
		<node id="93" x="476332.82" y="4202335.626" z="0.0" >
		</node>
		<node id="94" x="476270.568" y="4202375.744" z="0.0" >
		</node>
		<node id="95" x="476279.33" y="4202411.712" z="0.0" >
		</node>
		<node id="96" x="476419.973" y="4202441.224" z="0.0" >
		</node>
		<node id="97" x="476346.654" y="4202468.892" z="0.0" >
		</node>
		<node id="98" x="476354.954" y="4202429.696" z="0.0" >
		</node>
		<node id="99" x="476853.431" y="4202123.508" z="0.0" >
		</node>
	</nodes>

<!-- ====================================================================== -->

	<links capperiod="01:00:00" effectivecellsize="7.5" effectivelanewidth="3.75">
		<link id="10000" from="5000" to="11" length="1073.02" freespeed="13.88888888888889" capacity="1200.0" permlanes="1.0" oneway="1" modes="escooter,bicycle,walk,car" >
			<attributes>
				<attribute name="bicycleInfrastructureSpeedFactor" class="java.lang.Double">1.0</attribute>
				<attribute name="carpsafe" class="java.lang.Integer">5</attribute>
				<attribute name="ebikepsafe" class="java.lang.Integer">3</attribute>
				<attribute name="escootpsafe" class="java.lang.Integer">2</attribute>
				<attribute name="origid" class="java.lang.String"></attribute>
				<attribute name="type" class="java.lang.String">primary</attribute>
				<attribute name="walkpsafe" class="java.lang.Integer">4</attribute>
			</attributes>
		</link>
		<link id="10001" from="6000" to="11" length="206.539" freespeed="13.88888888888889" capacity="1200.0" permlanes="1.0" oneway="1" modes="escooter,bicycle,walk,car" >
			<attributes>
				<attribute name="bicycleInfrastructureSpeedFactor" class="java.lang.Double">1.0</attribute>
				<attribute name="carpsafe" class="java.lang.Integer">5</attribute>
				<attribute name="ebikepsafe" class="java.lang.Integer">3</attribute>
				<attribute name="escootpsafe" class="java.lang.Integer">2</attribute>
				<attribute name="origid" class="java.lang.String"></attribute>
				<attribute name="type" class="java.lang.String">primary</attribute>
				<attribute name="walkpsafe" class="java.lang.Integer">4</attribute>
			</attributes>
		</link>
		<link id="10002" from="11" to="10" length="662.578" freespeed="13.88888888888889" capacity="1200.0" permlanes="1.0" oneway="1" modes="escooter,bicycle,walk,car" >
			<attributes>
				<attribute name="bicycleInfrastructureSpeedFactor" class="java.lang.Double">1.0</attribute>
				<attribute name="carpsafe" class="java.lang.Integer">5</attribute>
				<attribute name="ebikepsafe" class="java.lang.Integer">3</attribute>
				<attribute name="escootpsafe" class="java.lang.Integer">2</attribute>
				<attribute name="origid" class="java.lang.String"></attribute>
				<attribute name="type" class="java.lang.String">primary</attribute>
				<attribute name="walkpsafe" class="java.lang.Integer">4</attribute>
			</attributes>
		</link>
		<link id="10003" from="4000" to="9" length="1080.269" freespeed="13.88888888888889" capacity="1200.0" permlanes="1.0" oneway="1" modes="escooter,bicycle,walk,car" >
			<attributes>
				<attribute name="bicycleInfrastructureSpeedFactor" class="java.lang.Double">1.0</attribute>
				<attribute name="carpsafe" class="java.lang.Integer">5</attribute>
				<attribute name="ebikepsafe" class="java.lang.Integer">3</attribute>
				<attribute name="escootpsafe" class="java.lang.Integer">2</attribute>
				<attribute name="origid" class="java.lang.String"></attribute>
				<attribute name="type" class="java.lang.String">primary</attribute>
				<attribute name="walkpsafe" class="java.lang.Integer">4</attribute>
			</attributes>
		</link>
		<link id="10004" from="3000" to="8" length="363.119" freespeed="13.88888888888889" capacity="1200.0" permlanes="1.0" oneway="1" modes="escooter,bicycle,walk,car" >
			<attributes>
				<attribute name="bicycleInfrastructureSpeedFactor" class="java.lang.Double">1.0</attribute>
				<attribute name="carpsafe" class="java.lang.Integer">5</attribute>
				<attribute name="ebikepsafe" class="java.lang.Integer">3</attribute>
				<attribute name="escootpsafe" class="java.lang.Integer">2</attribute>
				<attribute name="origid" class="java.lang.String"></attribute>
				<attribute name="type" class="java.lang.String">primary</attribute>
				<attribute name="walkpsafe" class="java.lang.Integer">4</attribute>
			</attributes>
		</link>
		<link id="10005" from="2000" to="18" length="676.757" freespeed="13.88888888888889" capacity="1200.0" permlanes="1.0" oneway="1" modes="escooter,bicycle,walk,car" >
			<attributes>
				<attribute name="bicycleInfrastructureSpeedFactor" class="java.lang.Double">1.0</attribute>
				<attribute name="carpsafe" class="java.lang.Integer">5</attribute>
				<attribute name="ebikepsafe" class="java.lang.Integer">3</attribute>
				<attribute name="escootpsafe" class="java.lang.Integer">2</attribute>
				<attribute name="origid" class="java.lang.String"></attribute>
				<attribute name="type" class="java.lang.String">primary</attribute>
				<attribute name="walkpsafe" class="java.lang.Integer">4</attribute>
			</attributes>
		</link>
		<link id="10006" from="1000" to="14" length="912.202" freespeed="13.88888888888889" capacity="1200.0" permlanes="1.0" oneway="1" modes="escooter,bicycle,walk,car" >
			<attributes>
				<attribute name="bicycleInfrastructureSpeedFactor" class="java.lang.Double">1.0</attribute>
				<attribute name="carpsafe" class="java.lang.Integer">5</attribute>
				<attribute name="ebikepsafe" class="java.lang.Integer">3</attribute>
				<attribute name="escootpsafe" class="java.lang.Integer">2</attribute>
				<attribute name="origid" class="java.lang.String"></attribute>
				<attribute name="type" class="java.lang.String">primary</attribute>
				<attribute name="walkpsafe" class="java.lang.Integer">4</attribute>
			</attributes>
		</link>
		<link id="10007" from="7000" to="103" length="842.917" freespeed="13.88888888888889" capacity="1200.0" permlanes="1.0" oneway="1" modes="escooter,bicycle,walk,car" >
			<attributes>
				<attribute name="bicycleInfrastructureSpeedFactor" class="java.lang.Double">1.0</attribute>
				<attribute name="carpsafe" class="java.lang.Integer">5</attribute>
				<attribute name="ebikepsafe" class="java.lang.Integer">3</attribute>
				<attribute name="escootpsafe" class="java.lang.Integer">2</attribute>
				<attribute name="origid" class="java.lang.String"></attribute>
				<attribute name="type" class="java.lang.String">primary</attribute>
				<attribute name="walkpsafe" class="java.lang.Integer">4</attribute>
			</attributes>
		</link>
		<link id="10008" from="9000" to="19" length="639.999" freespeed="13.88888888888889" capacity="1200.0" permlanes="1.0" oneway="1" modes="escooter,bicycle,walk,car" >
			<attributes>
				<attribute name="bicycleInfrastructureSpeedFactor" class="java.lang.Double">1.0</attribute>
				<attribute name="carpsafe" class="java.lang.Integer">5</attribute>
				<attribute name="ebikepsafe" class="java.lang.Integer">3</attribute>
				<attribute name="escootpsafe" class="java.lang.Integer">2</attribute>
				<attribute name="origid" class="java.lang.String"></attribute>
				<attribute name="type" class="java.lang.String">primary</attribute>
				<attribute name="walkpsafe" class="java.lang.Integer">4</attribute>
			</attributes>
		</link>
		<link id="10009" from="1000" to="19" length="1061.447" freespeed="13.88888888888889" capacity="1200.0" permlanes="1.0" oneway="1" modes="escooter,bicycle,walk,car" >
			<attributes>
				<attribute name="bicycleInfrastructureSpeedFactor" class="java.lang.Double">1.0</attribute>
				<attribute name="carpsafe" class="java.lang.Integer">5</attribute>
				<attribute name="ebikepsafe" class="java.lang.Integer">3</attribute>
				<attribute name="escootpsafe" class="java.lang.Integer">2</attribute>
				<attribute name="origid" class="java.lang.String"></attribute>
				<attribute name="type" class="java.lang.String">primary</attribute>
				<attribute name="walkpsafe" class="java.lang.Integer">4</attribute>
			</attributes>
		</link>
		<link id="10010" from="19" to="12" length="198.003" freespeed="13.88888888888889" capacity="1200.0" permlanes="1.0" oneway="1" modes="escooter,bicycle,walk,car" >
			<attributes>
				<attribute name="bicycleInfrastructureSpeedFactor" class="java.lang.Double">1.0</attribute>
				<attribute name="carpsafe" class="java.lang.Integer">5</attribute>
				<attribute name="ebikepsafe" class="java.lang.Integer">3</attribute>
				<attribute name="escootpsafe" class="java.lang.Integer">2</attribute>
				<attribute name="origid" class="java.lang.String"></attribute>
				<attribute name="type" class="java.lang.String">primary</attribute>
				<attribute name="walkpsafe" class="java.lang.Integer">4</attribute>
			</attributes>
		</link>
		<link id="10011" from="23" to="24" length="107.419" freespeed="19.444444444444443" capacity="2400.0" permlanes="2.0" oneway="1" modes="car" >
			<attributes>
				<attribute name="bicycleInfrastructureSpeedFactor" class="java.lang.Double">1.0</attribute>
				<attribute name="carpsafe" class="java.lang.Integer">5</attribute>
				<attribute name="ebikepsafe" class="java.lang.Integer">2</attribute>
				<attribute name="escootpsafe" class="java.lang.Integer">2</attribute>
				<attribute name="origid" class="java.lang.String"></attribute>
				<attribute name="type" class="java.lang.String">primary</attribute>
				<attribute name="walkpsafe" class="java.lang.Integer">4</attribute>
			</attributes>
		</link>
		<link id="10012" from="24" to="25" length="71.14" freespeed="19.444444444444443" capacity="2400.0" permlanes="2.0" oneway="1" modes="car" >
			<attributes>
				<attribute name="bicycleInfrastructureSpeedFactor" class="java.lang.Double">1.0</attribute>
				<attribute name="carpsafe" class="java.lang.Integer">5</attribute>
				<attribute name="ebikepsafe" class="java.lang.Integer">2</attribute>
				<attribute name="escootpsafe" class="java.lang.Integer">2</attribute>
				<attribute name="origid" class="java.lang.String"></attribute>
				<attribute name="type" class="java.lang.String">primary</attribute>
				<attribute name="walkpsafe" class="java.lang.Integer">4</attribute>
			</attributes>
		</link>
		<link id="10013" from="25" to="26" length="51.089" freespeed="19.444444444444443" capacity="2400.0" permlanes="2.0" oneway="1" modes="car" >
			<attributes>
				<attribute name="bicycleInfrastructureSpeedFactor" class="java.lang.Double">1.0</attribute>
				<attribute name="carpsafe" class="java.lang.Integer">5</attribute>
				<attribute name="ebikepsafe" class="java.lang.Integer">2</attribute>
				<attribute name="escootpsafe" class="java.lang.Integer">2</attribute>
				<attribute name="origid" class="java.lang.String"></attribute>
				<attribute name="type" class="java.lang.String">primary</attribute>
				<attribute name="walkpsafe" class="java.lang.Integer">4</attribute>
			</attributes>
		</link>
		<link id="10014" from="26" to="8" length="102.908" freespeed="19.444444444444443" capacity="2400.0" permlanes="2.0" oneway="1" modes="car" >
			<attributes>
				<attribute name="bicycleInfrastructureSpeedFactor" class="java.lang.Double">1.0</attribute>
				<attribute name="carpsafe" class="java.lang.Integer">5</attribute>
				<attribute name="ebikepsafe" class="java.lang.Integer">2</attribute>
				<attribute name="escootpsafe" class="java.lang.Integer">2</attribute>
				<attribute name="origid" class="java.lang.String"></attribute>
				<attribute name="type" class="java.lang.String">primary</attribute>
				<attribute name="walkpsafe" class="java.lang.Integer">4</attribute>
			</attributes>
		</link>
		<link id="10015" from="8" to="27" length="61.661" freespeed="19.444444444444443" capacity="4800.0" permlanes="4.0" oneway="1" modes="escooter,bicycle,walk,car" >
			<attributes>
				<attribute name="bicycleInfrastructureSpeedFactor" class="java.lang.Double">1.0</attribute>
				<attribute name="carpsafe" class="java.lang.Integer">6</attribute>
				<attribute name="ebikepsafe" class="java.lang.Integer">3</attribute>
				<attribute name="escootpsafe" class="java.lang.Integer">2</attribute>
				<attribute name="origid" class="java.lang.String"></attribute>
				<attribute name="type" class="java.lang.String">primary</attribute>
				<attribute name="walkpsafe" class="java.lang.Integer">5</attribute>
			</attributes>
		</link>
		<link id="10016" from="27" to="28" length="114.983" freespeed="19.444444444444443" capacity="4800.0" permlanes="4.0" oneway="1" modes="car" >
			<attributes>
				<attribute name="bicycleInfrastructureSpeedFactor" class="java.lang.Double">1.0</attribute>
				<attribute name="carpsafe" class="java.lang.Integer">5</attribute>
				<attribute name="ebikepsafe" class="java.lang.Integer">2</attribute>
				<attribute name="escootpsafe" class="java.lang.Integer">2</attribute>
				<attribute name="origid" class="java.lang.String"></attribute>
				<attribute name="type" class="java.lang.String">primary</attribute>
				<attribute name="walkpsafe" class="java.lang.Integer">4</attribute>
			</attributes>
		</link>
		<link id="10017" from="28" to="29" length="84.213" freespeed="19.444444444444443" capacity="4800.0" permlanes="4.0" oneway="1" modes="car" >
			<attributes>
				<attribute name="bicycleInfrastructureSpeedFactor" class="java.lang.Double">1.0</attribute>
				<attribute name="carpsafe" class="java.lang.Integer">5</attribute>
				<attribute name="ebikepsafe" class="java.lang.Integer">3</attribute>
				<attribute name="escootpsafe" class="java.lang.Integer">2</attribute>
				<attribute name="origid" class="java.lang.String"></attribute>
				<attribute name="type" class="java.lang.String">primary</attribute>
				<attribute name="walkpsafe" class="java.lang.Integer">6</attribute>
			</attributes>
		</link>
		<link id="10018" from="29" to="30" length="76.208" freespeed="19.444444444444443" capacity="4800.0" permlanes="4.0" oneway="1" modes="car" >
			<attributes>
				<attribute name="bicycleInfrastructureSpeedFactor" class="java.lang.Double">1.0</attribute>
				<attribute name="carpsafe" class="java.lang.Integer">6</attribute>
				<attribute name="ebikepsafe" class="java.lang.Integer">3</attribute>
				<attribute name="escootpsafe" class="java.lang.Integer">3</attribute>
				<attribute name="origid" class="java.lang.String"></attribute>
				<attribute name="type" class="java.lang.String">primary</attribute>
				<attribute name="walkpsafe" class="java.lang.Integer">6</attribute>
			</attributes>
		</link>
		<link id="10019" from="36" to="18" length="129.877" freespeed="19.444444444444443" capacity="4800.0" permlanes="4.0" oneway="1" modes="car" >
			<attributes>
				<attribute name="bicycleInfrastructureSpeedFactor" class="java.lang.Double">1.0</attribute>
				<attribute name="carpsafe" class="java.lang.Integer">6</attribute>
				<attribute name="ebikepsafe" class="java.lang.Integer">6</attribute>
				<attribute name="escootpsafe" class="java.lang.Integer">5</attribute>
				<attribute name="origid" class="java.lang.String"></attribute>
				<attribute name="type" class="java.lang.String">primary</attribute>
				<attribute name="walkpsafe" class="java.lang.Integer">6</attribute>
			</attributes>
		</link>
		<link id="10020" from="36" to="18" length="129.877" freespeed="19.444444444444443" capacity="1200.0" permlanes="1.0" oneway="1" modes="bicycle,walk,escooter" >
			<attributes>
				<attribute name="bicycleInfrastructureSpeedFactor" class="java.lang.Double">1.0</attribute>
				<attribute name="carpsafe" class="java.lang.Integer">6</attribute>
				<attribute name="ebikepsafe" class="java.lang.Integer">6</attribute>
				<attribute name="escootpsafe" class="java.lang.Integer">5</attribute>
				<attribute name="origid" class="java.lang.String"></attribute>
				<attribute name="type" class="java.lang.String">primary</attribute>
				<attribute name="walkpsafe" class="java.lang.Integer">6</attribute>
			</attributes>
		</link>
		<link id="10021" from="48" to="46" length="139.626" freespeed="19.444444444444443" capacity="4800.0" permlanes="4.0" oneway="1" modes="car" >
			<attributes>
				<attribute name="bicycleInfrastructureSpeedFactor" class="java.lang.Double">1.0</attribute>
				<attribute name="carpsafe" class="java.lang.Integer">6</attribute>
				<attribute name="ebikepsafe" class="java.lang.Integer">6</attribute>
				<attribute name="escootpsafe" class="java.lang.Integer">5</attribute>
				<attribute name="origid" class="java.lang.String"></attribute>
				<attribute name="type" class="java.lang.String">primary</attribute>
				<attribute name="walkpsafe" class="java.lang.Integer">6</attribute>
			</attributes>
		</link>
		<link id="10022" from="46" to="42" length="111.859" freespeed="19.444444444444443" capacity="4800.0" permlanes="4.0" oneway="1" modes="car" >
			<attributes>
				<attribute name="bicycleInfrastructureSpeedFactor" class="java.lang.Double">1.0</attribute>
				<attribute name="carpsafe" class="java.lang.Integer">6</attribute>
				<attribute name="ebikepsafe" class="java.lang.Integer">6</attribute>
				<attribute name="escootpsafe" class="java.lang.Integer">5</attribute>
				<attribute name="origid" class="java.lang.String"></attribute>
				<attribute name="type" class="java.lang.String">primary</attribute>
				<attribute name="walkpsafe" class="java.lang.Integer">6</attribute>
			</attributes>
		</link>
		<link id="10023" from="42" to="44" length="82.757" freespeed="19.444444444444443" capacity="4800.0" permlanes="4.0" oneway="1" modes="car" >
			<attributes>
				<attribute name="bicycleInfrastructureSpeedFactor" class="java.lang.Double">1.0</attribute>
				<attribute name="carpsafe" class="java.lang.Integer">6</attribute>
				<attribute name="ebikepsafe" class="java.lang.Integer">6</attribute>
				<attribute name="escootpsafe" class="java.lang.Integer">5</attribute>
				<attribute name="origid" class="java.lang.String"></attribute>
				<attribute name="type" class="java.lang.String">primary</attribute>
				<attribute name="walkpsafe" class="java.lang.Integer">6</attribute>
			</attributes>
		</link>
		<link id="10024" from="44" to="40" length="84.573" freespeed="19.444444444444443" capacity="4800.0" permlanes="4.0" oneway="1" modes="car" >
			<attributes>
				<attribute name="bicycleInfrastructureSpeedFactor" class="java.lang.Double">1.0</attribute>
				<attribute name="carpsafe" class="java.lang.Integer">6</attribute>
				<attribute name="ebikepsafe" class="java.lang.Integer">6</attribute>
				<attribute name="escootpsafe" class="java.lang.Integer">5</attribute>
				<attribute name="origid" class="java.lang.String"></attribute>
				<attribute name="type" class="java.lang.String">primary</attribute>
				<attribute name="walkpsafe" class="java.lang.Integer">6</attribute>
			</attributes>
		</link>
		<link id="10025" from="40" to="38" length="289.361" freespeed="19.444444444444443" capacity="4800.0" permlanes="4.0" oneway="1" modes="car" >
			<attributes>
				<attribute name="bicycleInfrastructureSpeedFactor" class="java.lang.Double">1.0</attribute>
				<attribute name="carpsafe" class="java.lang.Integer">6</attribute>
				<attribute name="ebikepsafe" class="java.lang.Integer">6</attribute>
				<attribute name="escootpsafe" class="java.lang.Integer">5</attribute>
				<attribute name="origid" class="java.lang.String"></attribute>
				<attribute name="type" class="java.lang.String">primary</attribute>
				<attribute name="walkpsafe" class="java.lang.Integer">6</attribute>
			</attributes>
		</link>
		<link id="10026" from="38" to="37" length="99.91" freespeed="19.444444444444443" capacity="4800.0" permlanes="4.0" oneway="1" modes="car" >
			<attributes>
				<attribute name="bicycleInfrastructureSpeedFactor" class="java.lang.Double">1.0</attribute>
				<attribute name="carpsafe" class="java.lang.Integer">6</attribute>
				<attribute name="ebikepsafe" class="java.lang.Integer">6</attribute>
				<attribute name="escootpsafe" class="java.lang.Integer">5</attribute>
				<attribute name="origid" class="java.lang.String"></attribute>
				<attribute name="type" class="java.lang.String">primary</attribute>
				<attribute name="walkpsafe" class="java.lang.Integer">6</attribute>
			</attributes>
		</link>
		<link id="10027" from="37" to="36" length="133.13" freespeed="19.444444444444443" capacity="4800.0" permlanes="4.0" oneway="1" modes="car" >
			<attributes>
				<attribute name="bicycleInfrastructureSpeedFactor" class="java.lang.Double">1.0</attribute>
				<attribute name="carpsafe" class="java.lang.Integer">6</attribute>
				<attribute name="ebikepsafe" class="java.lang.Integer">6</attribute>
				<attribute name="escootpsafe" class="java.lang.Integer">5</attribute>
				<attribute name="origid" class="java.lang.String"></attribute>
				<attribute name="type" class="java.lang.String">primary</attribute>
				<attribute name="walkpsafe" class="java.lang.Integer">6</attribute>
			</attributes>
		</link>
		<link id="10028" from="48" to="46" length="139.626" freespeed="19.444444444444443" capacity="4800.0" permlanes="4.0" oneway="1" modes="bicycle,walk,escooter" >
			<attributes>
				<attribute name="bicycleInfrastructureSpeedFactor" class="java.lang.Double">1.0</attribute>
				<attribute name="carpsafe" class="java.lang.Integer">6</attribute>
				<attribute name="ebikepsafe" class="java.lang.Integer">6</attribute>
				<attribute name="escootpsafe" class="java.lang.Integer">5</attribute>
				<attribute name="origid" class="java.lang.String"></attribute>
				<attribute name="type" class="java.lang.String">primary</attribute>
				<attribute name="walkpsafe" class="java.lang.Integer">6</attribute>
			</attributes>
		</link>
		<link id="10029" from="46" to="42" length="111.859" freespeed="19.444444444444443" capacity="4800.0" permlanes="4.0" oneway="1" modes="bicycle,walk,escooter" >
			<attributes>
				<attribute name="bicycleInfrastructureSpeedFactor" class="java.lang.Double">1.0</attribute>
				<attribute name="carpsafe" class="java.lang.Integer">6</attribute>
				<attribute name="ebikepsafe" class="java.lang.Integer">6</attribute>
				<attribute name="escootpsafe" class="java.lang.Integer">5</attribute>
				<attribute name="origid" class="java.lang.String"></attribute>
				<attribute name="type" class="java.lang.String">primary</attribute>
				<attribute name="walkpsafe" class="java.lang.Integer">6</attribute>
			</attributes>
		</link>
		<link id="10030" from="42" to="44" length="82.757" freespeed="19.444444444444443" capacity="4800.0" permlanes="4.0" oneway="1" modes="bicycle,walk,escooter" >
			<attributes>
				<attribute name="bicycleInfrastructureSpeedFactor" class="java.lang.Double">1.0</attribute>
				<attribute name="carpsafe" class="java.lang.Integer">6</attribute>
				<attribute name="ebikepsafe" class="java.lang.Integer">6</attribute>
				<attribute name="escootpsafe" class="java.lang.Integer">5</attribute>
				<attribute name="origid" class="java.lang.String"></attribute>
				<attribute name="type" class="java.lang.String">primary</attribute>
				<attribute name="walkpsafe" class="java.lang.Integer">6</attribute>
			</attributes>
		</link>
		<link id="10031" from="44" to="40" length="84.573" freespeed="19.444444444444443" capacity="4800.0" permlanes="4.0" oneway="1" modes="bicycle,walk,escooter" >
			<attributes>
				<attribute name="bicycleInfrastructureSpeedFactor" class="java.lang.Double">1.0</attribute>
				<attribute name="carpsafe" class="java.lang.Integer">6</attribute>
				<attribute name="ebikepsafe" class="java.lang.Integer">6</attribute>
				<attribute name="escootpsafe" class="java.lang.Integer">5</attribute>
				<attribute name="origid" class="java.lang.String"></attribute>
				<attribute name="type" class="java.lang.String">primary</attribute>
				<attribute name="walkpsafe" class="java.lang.Integer">6</attribute>
			</attributes>
		</link>
		<link id="10032" from="40" to="51" length="111.158" freespeed="19.444444444444443" capacity="4800.0" permlanes="4.0" oneway="1" modes="bicycle,walk,escooter" >
			<attributes>
				<attribute name="bicycleInfrastructureSpeedFactor" class="java.lang.Double">1.0</attribute>
				<attribute name="carpsafe" class="java.lang.Integer">6</attribute>
				<attribute name="ebikepsafe" class="java.lang.Integer">6</attribute>
				<attribute name="escootpsafe" class="java.lang.Integer">5</attribute>
				<attribute name="origid" class="java.lang.String"></attribute>
				<attribute name="type" class="java.lang.String">primary</attribute>
				<attribute name="walkpsafe" class="java.lang.Integer">6</attribute>
			</attributes>
		</link>
		<link id="10033" from="51" to="38" length="153.558" freespeed="19.444444444444443" capacity="4800.0" permlanes="4.0" oneway="1" modes="bicycle,walk,escooter" >
			<attributes>
				<attribute name="bicycleInfrastructureSpeedFactor" class="java.lang.Double">1.0</attribute>
				<attribute name="carpsafe" class="java.lang.Integer">6</attribute>
				<attribute name="ebikepsafe" class="java.lang.Integer">6</attribute>
				<attribute name="escootpsafe" class="java.lang.Integer">5</attribute>
				<attribute name="origid" class="java.lang.String"></attribute>
				<attribute name="type" class="java.lang.String">primary</attribute>
				<attribute name="walkpsafe" class="java.lang.Integer">6</attribute>
			</attributes>
		</link>
		<link id="10034" from="38" to="37" length="99.91" freespeed="19.444444444444443" capacity="4800.0" permlanes="4.0" oneway="1" modes="bicycle,walk,escooter" >
			<attributes>
				<attribute name="bicycleInfrastructureSpeedFactor" class="java.lang.Double">1.0</attribute>
				<attribute name="carpsafe" class="java.lang.Integer">6</attribute>
				<attribute name="ebikepsafe" class="java.lang.Integer">6</attribute>
				<attribute name="escootpsafe" class="java.lang.Integer">5</attribute>
				<attribute name="origid" class="java.lang.String"></attribute>
				<attribute name="type" class="java.lang.String">primary</attribute>
				<attribute name="walkpsafe" class="java.lang.Integer">6</attribute>
			</attributes>
		</link>
		<link id="10035" from="37" to="36" length="133.13" freespeed="19.444444444444443" capacity="4800.0" permlanes="4.0" oneway="1" modes="bicycle,walk,escooter" >
			<attributes>
				<attribute name="bicycleInfrastructureSpeedFactor" class="java.lang.Double">1.0</attribute>
				<attribute name="carpsafe" class="java.lang.Integer">6</attribute>
				<attribute name="ebikepsafe" class="java.lang.Integer">6</attribute>
				<attribute name="escootpsafe" class="java.lang.Integer">5</attribute>
				<attribute name="origid" class="java.lang.String"></attribute>
				<attribute name="type" class="java.lang.String">primary</attribute>
				<attribute name="walkpsafe" class="java.lang.Integer">6</attribute>
			</attributes>
		</link>
		<link id="10036" from="51" to="50" length="118.288" freespeed="8.333333333333334" capacity="1200.0" permlanes="1.0" oneway="1" modes="bicycle,walk,escooter" >
			<attributes>
				<attribute name="bicycleInfrastructureSpeedFactor" class="java.lang.Double">1.0</attribute>
				<attribute name="carpsafe" class="java.lang.Integer">6</attribute>
				<attribute name="ebikepsafe" class="java.lang.Integer">4</attribute>
				<attribute name="escootpsafe" class="java.lang.Integer">3</attribute>
				<attribute name="origid" class="java.lang.String"></attribute>
				<attribute name="type" class="java.lang.String">primary</attribute>
				<attribute name="walkpsafe" class="java.lang.Integer">6</attribute>
			</attributes>
		</link>
		<link id="10037" from="50" to="34" length="43.78" freespeed="13.88888888888889" capacity="4800.0" permlanes="4.0" oneway="1" modes="bicycle,walk,escooter" >
			<attributes>
				<attribute name="bicycleInfrastructureSpeedFactor" class="java.lang.Double">1.0</attribute>
				<attribute name="carpsafe" class="java.lang.Integer">6</attribute>
				<attribute name="ebikepsafe" class="java.lang.Integer">3</attribute>
				<attribute name="escootpsafe" class="java.lang.Integer">3</attribute>
				<attribute name="origid" class="java.lang.String"></attribute>
				<attribute name="type" class="java.lang.String">primary</attribute>
				<attribute name="walkpsafe" class="java.lang.Integer">6</attribute>
			</attributes>
		</link>
		<link id="10038" from="50" to="49" length="48.275" freespeed="8.333333333333334" capacity="4800.0" permlanes="4.0" oneway="1" modes="bicycle,walk,escooter" >
			<attributes>
				<attribute name="bicycleInfrastructureSpeedFactor" class="java.lang.Double">1.0</attribute>
				<attribute name="carpsafe" class="java.lang.Integer">6</attribute>
				<attribute name="ebikepsafe" class="java.lang.Integer">3</attribute>
				<attribute name="escootpsafe" class="java.lang.Integer">3</attribute>
				<attribute name="origid" class="java.lang.String"></attribute>
				<attribute name="type" class="java.lang.String">primary</attribute>
				<attribute name="walkpsafe" class="java.lang.Integer">6</attribute>
			</attributes>
		</link>
		<link id="10039" from="18" to="32" length="115.257" freespeed="13.88888888888889" capacity="2400.0" permlanes="2.0" oneway="1" modes="car" >
			<attributes>
				<attribute name="bicycleInfrastructureSpeedFactor" class="java.lang.Double">1.0</attribute>
				<attribute name="carpsafe" class="java.lang.Integer">5</attribute>
				<attribute name="ebikepsafe" class="java.lang.Integer">3</attribute>
				<attribute name="escootpsafe" class="java.lang.Integer">2</attribute>
				<attribute name="origid" class="java.lang.String"></attribute>
				<attribute name="type" class="java.lang.String">primary</attribute>
				<attribute name="walkpsafe" class="java.lang.Integer">6</attribute>
			</attributes>
		</link>
		<link id="10040" from="35" to="36" length="115.493" freespeed="13.88888888888889" capacity="1200.0" permlanes="1.0" oneway="1" modes="escooter,bicycle,walk,car" >
			<attributes>
				<attribute name="bicycleInfrastructureSpeedFactor" class="java.lang.Double">1.0</attribute>
				<attribute name="carpsafe" class="java.lang.Integer">4</attribute>
				<attribute name="ebikepsafe" class="java.lang.Integer">2</attribute>
				<attribute name="escootpsafe" class="java.lang.Integer">2</attribute>
				<attribute name="origid" class="java.lang.String"></attribute>
				<attribute name="type" class="java.lang.String">primary</attribute>
				<attribute name="walkpsafe" class="java.lang.Integer">4</attribute>
			</attributes>
		</link>
		<link id="10041" from="52" to="37" length="116.187" freespeed="13.88888888888889" capacity="1200.0" permlanes="1.0" oneway="1" modes="escooter,bicycle,walk,car" >
			<attributes>
				<attribute name="bicycleInfrastructureSpeedFactor" class="java.lang.Double">1.0</attribute>
				<attribute name="carpsafe" class="java.lang.Integer">4</attribute>
				<attribute name="ebikepsafe" class="java.lang.Integer">2</attribute>
				<attribute name="escootpsafe" class="java.lang.Integer">2</attribute>
				<attribute name="origid" class="java.lang.String"></attribute>
				<attribute name="type" class="java.lang.String">primary</attribute>
				<attribute name="walkpsafe" class="java.lang.Integer">3</attribute>
			</attributes>
		</link>
		<link id="10042" from="38" to="33" length="117.539" freespeed="13.88888888888889" capacity="2400.0" permlanes="2.0" oneway="1" modes="escooter,bicycle,walk,car" >
			<attributes>
				<attribute name="bicycleInfrastructureSpeedFactor" class="java.lang.Double">1.0</attribute>
				<attribute name="carpsafe" class="java.lang.Integer">5</attribute>
				<attribute name="ebikepsafe" class="java.lang.Integer">2</attribute>
				<attribute name="escootpsafe" class="java.lang.Integer">2</attribute>
				<attribute name="origid" class="java.lang.String"></attribute>
				<attribute name="type" class="java.lang.String">primary</attribute>
				<attribute name="walkpsafe" class="java.lang.Integer">4</attribute>
			</attributes>
		</link>
		<link id="10043" from="39" to="40" length="123.285" freespeed="13.88888888888889" capacity="1200.0" permlanes="1.0" oneway="1" modes="escooter,bicycle,walk,car" >
			<attributes>
				<attribute name="bicycleInfrastructureSpeedFactor" class="java.lang.Double">1.0</attribute>
				<attribute name="carpsafe" class="java.lang.Integer">6</attribute>
				<attribute name="ebikepsafe" class="java.lang.Integer">3</attribute>
				<attribute name="escootpsafe" class="java.lang.Integer">2</attribute>
				<attribute name="origid" class="java.lang.String"></attribute>
				<attribute name="type" class="java.lang.String">primary</attribute>
				<attribute name="walkpsafe" class="java.lang.Integer">5</attribute>
			</attributes>
		</link>
		<link id="10044" from="44" to="43" length="124.549" freespeed="13.88888888888889" capacity="1200.0" permlanes="1.0" oneway="1" modes="escooter,bicycle,walk,car" >
			<attributes>
				<attribute name="bicycleInfrastructureSpeedFactor" class="java.lang.Double">1.0</attribute>
				<attribute name="carpsafe" class="java.lang.Integer">5</attribute>
				<attribute name="ebikepsafe" class="java.lang.Integer">3</attribute>
				<attribute name="escootpsafe" class="java.lang.Integer">2</attribute>
				<attribute name="origid" class="java.lang.String"></attribute>
				<attribute name="type" class="java.lang.String">primary</attribute>
				<attribute name="walkpsafe" class="java.lang.Integer">5</attribute>
			</attributes>
		</link>
		<link id="10045" from="41" to="42" length="122.047" freespeed="13.88888888888889" capacity="1200.0" permlanes="1.0" oneway="1" modes="escooter,bicycle,walk,car" >
			<attributes>
				<attribute name="bicycleInfrastructureSpeedFactor" class="java.lang.Double">1.0</attribute>
				<attribute name="carpsafe" class="java.lang.Integer">5</attribute>
				<attribute name="ebikepsafe" class="java.lang.Integer">2</attribute>
				<attribute name="escootpsafe" class="java.lang.Integer">2</attribute>
				<attribute name="origid" class="java.lang.String"></attribute>
				<attribute name="type" class="java.lang.String">primary</attribute>
				<attribute name="walkpsafe" class="java.lang.Integer">4</attribute>
			</attributes>
		</link>
		<link id="10046" from="45" to="46" length="121.143" freespeed="8.333333333333334" capacity="1200.0" permlanes="1.0" oneway="1" modes="bicycle,walk,escooter" >
			<attributes>
				<attribute name="bicycleInfrastructureSpeedFactor" class="java.lang.Double">1.0</attribute>
				<attribute name="carpsafe" class="java.lang.Integer">5</attribute>
				<attribute name="ebikepsafe" class="java.lang.Integer">3</attribute>
				<attribute name="escootpsafe" class="java.lang.Integer">3</attribute>
				<attribute name="origid" class="java.lang.String"></attribute>
				<attribute name="type" class="java.lang.String">primary</attribute>
				<attribute name="walkpsafe" class="java.lang.Integer">6</attribute>
			</attributes>
		</link>
		<link id="10047" from="45" to="47" length="50.022" freespeed="13.88888888888889" capacity="1200.0" permlanes="1.0" oneway="1" modes="escooter,bicycle,walk,car" >
			<attributes>
				<attribute name="bicycleInfrastructureSpeedFactor" class="java.lang.Double">1.0</attribute>
				<attribute name="carpsafe" class="java.lang.Integer">6</attribute>
				<attribute name="ebikepsafe" class="java.lang.Integer">3</attribute>
				<attribute name="escootpsafe" class="java.lang.Integer">3</attribute>
				<attribute name="origid" class="java.lang.String"></attribute>
				<attribute name="type" class="java.lang.String">primary</attribute>
				<attribute name="walkpsafe" class="java.lang.Integer">6</attribute>
			</attributes>
		</link>
		<link id="10048" from="30" to="155" length="103.638" freespeed="19.444444444444443" capacity="4800.0" permlanes="4.0" oneway="1" modes="car" >
			<attributes>
				<attribute name="bicycleInfrastructureSpeedFactor" class="java.lang.Double">1.0</attribute>
				<attribute name="carpsafe" class="java.lang.Integer">6</attribute>
				<attribute name="ebikepsafe" class="java.lang.Integer">3</attribute>
				<attribute name="escootpsafe" class="java.lang.Integer">3</attribute>
				<attribute name="origid" class="java.lang.String"></attribute>
				<attribute name="type" class="java.lang.String">primary</attribute>
				<attribute name="walkpsafe" class="java.lang.Integer">6</attribute>
			</attributes>
		</link>
		<link id="10049" from="31" to="32" length="87.894" freespeed="19.444444444444443" capacity="4800.0" permlanes="4.0" oneway="1" modes="escooter,bicycle,walk,car" >
			<attributes>
				<attribute name="bicycleInfrastructureSpeedFactor" class="java.lang.Double">1.0</attribute>
				<attribute name="carpsafe" class="java.lang.Integer">6</attribute>
				<attribute name="ebikepsafe" class="java.lang.Integer">3</attribute>
				<attribute name="escootpsafe" class="java.lang.Integer">3</attribute>
				<attribute name="origid" class="java.lang.String"></attribute>
				<attribute name="type" class="java.lang.String">primary</attribute>
				<attribute name="walkpsafe" class="java.lang.Integer">6</attribute>
			</attributes>
		</link>
		<link id="10050" from="32" to="35" length="42.603" freespeed="19.444444444444443" capacity="4800.0" permlanes="4.0" oneway="1" modes="car" >
			<attributes>
				<attribute name="bicycleInfrastructureSpeedFactor" class="java.lang.Double">1.0</attribute>
				<attribute name="carpsafe" class="java.lang.Integer">6</attribute>
				<attribute name="ebikepsafe" class="java.lang.Integer">3</attribute>
				<attribute name="escootpsafe" class="java.lang.Integer">3</attribute>
				<attribute name="origid" class="java.lang.String"></attribute>
				<attribute name="type" class="java.lang.String">primary</attribute>
				<attribute name="walkpsafe" class="java.lang.Integer">6</attribute>
			</attributes>
		</link>
		<link id="10051" from="35" to="52" length="129.38" freespeed="19.444444444444443" capacity="4800.0" permlanes="4.0" oneway="1" modes="car" >
			<attributes>
				<attribute name="bicycleInfrastructureSpeedFactor" class="java.lang.Double">1.0</attribute>
				<attribute name="carpsafe" class="java.lang.Integer">6</attribute>
				<attribute name="ebikepsafe" class="java.lang.Integer">3</attribute>
				<attribute name="escootpsafe" class="java.lang.Integer">3</attribute>
				<attribute name="origid" class="java.lang.String"></attribute>
				<attribute name="type" class="java.lang.String">primary</attribute>
				<attribute name="walkpsafe" class="java.lang.Integer">6</attribute>
			</attributes>
		</link>
		<link id="10052" from="52" to="33" length="100.92" freespeed="19.444444444444443" capacity="4800.0" permlanes="4.0" oneway="1" modes="car" >
			<attributes>
				<attribute name="bicycleInfrastructureSpeedFactor" class="java.lang.Double">1.0</attribute>
				<attribute name="carpsafe" class="java.lang.Integer">6</attribute>
				<attribute name="ebikepsafe" class="java.lang.Integer">3</attribute>
				<attribute name="escootpsafe" class="java.lang.Integer">3</attribute>
				<attribute name="origid" class="java.lang.String"></attribute>
				<attribute name="type" class="java.lang.String">primary</attribute>
				<attribute name="walkpsafe" class="java.lang.Integer">6</attribute>
			</attributes>
		</link>
		<link id="10053" from="33" to="34" length="113.348" freespeed="19.444444444444443" capacity="4800.0" permlanes="4.0" oneway="1" modes="car" >
			<attributes>
				<attribute name="bicycleInfrastructureSpeedFactor" class="java.lang.Double">1.0</attribute>
				<attribute name="carpsafe" class="java.lang.Integer">6</attribute>
				<attribute name="ebikepsafe" class="java.lang.Integer">3</attribute>
				<attribute name="escootpsafe" class="java.lang.Integer">3</attribute>
				<attribute name="origid" class="java.lang.String"></attribute>
				<attribute name="type" class="java.lang.String">primary</attribute>
				<attribute name="walkpsafe" class="java.lang.Integer">6</attribute>
			</attributes>
		</link>
		<link id="10054" from="34" to="50" length="43.78" freespeed="19.444444444444443" capacity="4800.0" permlanes="4.0" oneway="1" modes="car" >
			<attributes>
				<attribute name="bicycleInfrastructureSpeedFactor" class="java.lang.Double">1.0</attribute>
				<attribute name="carpsafe" class="java.lang.Integer">6</attribute>
				<attribute name="ebikepsafe" class="java.lang.Integer">3</attribute>
				<attribute name="escootpsafe" class="java.lang.Integer">3</attribute>
				<attribute name="origid" class="java.lang.String"></attribute>
				<attribute name="type" class="java.lang.String">primary</attribute>
				<attribute name="walkpsafe" class="java.lang.Integer">6</attribute>
			</attributes>
		</link>
		<link id="10055" from="50" to="49" length="48.275" freespeed="19.444444444444443" capacity="4800.0" permlanes="4.0" oneway="1" modes="car" >
			<attributes>
				<attribute name="bicycleInfrastructureSpeedFactor" class="java.lang.Double">1.0</attribute>
				<attribute name="carpsafe" class="java.lang.Integer">6</attribute>
				<attribute name="ebikepsafe" class="java.lang.Integer">3</attribute>
				<attribute name="escootpsafe" class="java.lang.Integer">3</attribute>
				<attribute name="origid" class="java.lang.String"></attribute>
				<attribute name="type" class="java.lang.String">primary</attribute>
				<attribute name="walkpsafe" class="java.lang.Integer">6</attribute>
			</attributes>
		</link>
		<link id="10056" from="49" to="39" length="86.655" freespeed="19.444444444444443" capacity="4800.0" permlanes="4.0" oneway="1" modes="car" >
			<attributes>
				<attribute name="bicycleInfrastructureSpeedFactor" class="java.lang.Double">1.0</attribute>
				<attribute name="carpsafe" class="java.lang.Integer">6</attribute>
				<attribute name="ebikepsafe" class="java.lang.Integer">3</attribute>
				<attribute name="escootpsafe" class="java.lang.Integer">3</attribute>
				<attribute name="origid" class="java.lang.String"></attribute>
				<attribute name="type" class="java.lang.String">primary</attribute>
				<attribute name="walkpsafe" class="java.lang.Integer">6</attribute>
			</attributes>
		</link>
		<link id="10057" from="39" to="43" length="86.405" freespeed="19.444444444444443" capacity="4800.0" permlanes="4.0" oneway="1" modes="car" >
			<attributes>
				<attribute name="bicycleInfrastructureSpeedFactor" class="java.lang.Double">1.0</attribute>
				<attribute name="carpsafe" class="java.lang.Integer">6</attribute>
				<attribute name="ebikepsafe" class="java.lang.Integer">3</attribute>
				<attribute name="escootpsafe" class="java.lang.Integer">3</attribute>
				<attribute name="origid" class="java.lang.String"></attribute>
				<attribute name="type" class="java.lang.String">primary</attribute>
				<attribute name="walkpsafe" class="java.lang.Integer">6</attribute>
			</attributes>
		</link>
		<link id="10058" from="43" to="41" length="79.177" freespeed="19.444444444444443" capacity="4800.0" permlanes="4.0" oneway="1" modes="car" >
			<attributes>
				<attribute name="bicycleInfrastructureSpeedFactor" class="java.lang.Double">1.0</attribute>
				<attribute name="carpsafe" class="java.lang.Integer">6</attribute>
				<attribute name="ebikepsafe" class="java.lang.Integer">3</attribute>
				<attribute name="escootpsafe" class="java.lang.Integer">3</attribute>
				<attribute name="origid" class="java.lang.String"></attribute>
				<attribute name="type" class="java.lang.String">primary</attribute>
				<attribute name="walkpsafe" class="java.lang.Integer">6</attribute>
			</attributes>
		</link>
		<link id="10059" from="41" to="45" length="108.582" freespeed="19.444444444444443" capacity="4800.0" permlanes="4.0" oneway="1" modes="car" >
			<attributes>
				<attribute name="bicycleInfrastructureSpeedFactor" class="java.lang.Double">1.0</attribute>
				<attribute name="carpsafe" class="java.lang.Integer">6</attribute>
				<attribute name="ebikepsafe" class="java.lang.Integer">3</attribute>
				<attribute name="escootpsafe" class="java.lang.Integer">3</attribute>
				<attribute name="origid" class="java.lang.String"></attribute>
				<attribute name="type" class="java.lang.String">primary</attribute>
				<attribute name="walkpsafe" class="java.lang.Integer">6</attribute>
			</attributes>
		</link>
		<link id="10060" from="45" to="47" length="50.022" freespeed="19.444444444444443" capacity="4800.0" permlanes="4.0" oneway="1" modes="car" >
			<attributes>
				<attribute name="bicycleInfrastructureSpeedFactor" class="java.lang.Double">1.0</attribute>
				<attribute name="carpsafe" class="java.lang.Integer">6</attribute>
				<attribute name="ebikepsafe" class="java.lang.Integer">3</attribute>
				<attribute name="escootpsafe" class="java.lang.Integer">3</attribute>
				<attribute name="origid" class="java.lang.String"></attribute>
				<attribute name="type" class="java.lang.String">primary</attribute>
				<attribute name="walkpsafe" class="java.lang.Integer">6</attribute>
			</attributes>
		</link>
		<link id="10061" from="48" to="47" length="124.451" freespeed="13.88888888888889" capacity="3600.0" permlanes="3.0" oneway="1" modes="escooter,bicycle,walk,car" >
			<attributes>
				<attribute name="bicycleInfrastructureSpeedFactor" class="java.lang.Double">1.0</attribute>
				<attribute name="carpsafe" class="java.lang.Integer">6</attribute>
				<attribute name="ebikepsafe" class="java.lang.Integer">3</attribute>
				<attribute name="escootpsafe" class="java.lang.Integer">3</attribute>
				<attribute name="origid" class="java.lang.String"></attribute>
				<attribute name="type" class="java.lang.String">primary</attribute>
				<attribute name="walkpsafe" class="java.lang.Integer">6</attribute>
			</attributes>
		</link>
		<link id="10062" from="14" to="48" length="418.223" freespeed="13.88888888888889" capacity="4800.0" permlanes="4.0" oneway="1" modes="car" >
			<attributes>
				<attribute name="bicycleInfrastructureSpeedFactor" class="java.lang.Double">1.0</attribute>
				<attribute name="carpsafe" class="java.lang.Integer">6</attribute>
				<attribute name="ebikepsafe" class="java.lang.Integer">3</attribute>
				<attribute name="escootpsafe" class="java.lang.Integer">3</attribute>
				<attribute name="origid" class="java.lang.String"></attribute>
				<attribute name="type" class="java.lang.String">primary</attribute>
				<attribute name="walkpsafe" class="java.lang.Integer">6</attribute>
			</attributes>
		</link>
		<link id="10063" from="48" to="14" length="418.223" freespeed="13.88888888888889" capacity="1200.0" permlanes="1.0" oneway="1" modes="car" >
			<attributes>
				<attribute name="bicycleInfrastructureSpeedFactor" class="java.lang.Double">1.0</attribute>
				<attribute name="carpsafe" class="java.lang.Integer">6</attribute>
				<attribute name="ebikepsafe" class="java.lang.Integer">3</attribute>
				<attribute name="escootpsafe" class="java.lang.Integer">3</attribute>
				<attribute name="origid" class="java.lang.String"></attribute>
				<attribute name="type" class="java.lang.String">primary</attribute>
				<attribute name="walkpsafe" class="java.lang.Integer">6</attribute>
			</attributes>
		</link>
		<link id="10064" from="14" to="48" length="418.223" freespeed="13.88888888888889" capacity="1200.0" permlanes="1.0" oneway="1" modes="bicycle,walk,escooter" >
			<attributes>
				<attribute name="bicycleInfrastructureSpeedFactor" class="java.lang.Double">1.0</attribute>
				<attribute name="carpsafe" class="java.lang.Integer">6</attribute>
				<attribute name="ebikepsafe" class="java.lang.Integer">3</attribute>
				<attribute name="escootpsafe" class="java.lang.Integer">3</attribute>
				<attribute name="origid" class="java.lang.String"></attribute>
				<attribute name="type" class="java.lang.String">primary</attribute>
				<attribute name="walkpsafe" class="java.lang.Integer">6</attribute>
			</attributes>
		</link>
		<link id="10065" from="53" to="259" length="133.585" freespeed="13.88888888888889" capacity="2400.0" permlanes="2.0" oneway="1" modes="escooter,bicycle,walk,car" >
			<attributes>
				<attribute name="bicycleInfrastructureSpeedFactor" class="java.lang.Double">1.0</attribute>
				<attribute name="carpsafe" class="java.lang.Integer">6</attribute>
				<attribute name="ebikepsafe" class="java.lang.Integer">3</attribute>
				<attribute name="escootpsafe" class="java.lang.Integer">3</attribute>
				<attribute name="origid" class="java.lang.String"></attribute>
				<attribute name="type" class="java.lang.String">primary</attribute>
				<attribute name="walkpsafe" class="java.lang.Integer">6</attribute>
			</attributes>
		</link>
		<link id="10066" from="47" to="53" length="135.806" freespeed="19.444444444444443" capacity="4800.0" permlanes="4.0" oneway="1" modes="car" >
			<attributes>
				<attribute name="bicycleInfrastructureSpeedFactor" class="java.lang.Double">1.0</attribute>
				<attribute name="carpsafe" class="java.lang.Integer">6</attribute>
				<attribute name="ebikepsafe" class="java.lang.Integer">3</attribute>
				<attribute name="escootpsafe" class="java.lang.Integer">3</attribute>
				<attribute name="origid" class="java.lang.String"></attribute>
				<attribute name="type" class="java.lang.String">primary</attribute>
				<attribute name="walkpsafe" class="java.lang.Integer">6</attribute>
			</attributes>
		</link>
		<link id="10067" from="47" to="53" length="135.806" freespeed="19.444444444444443" capacity="1200.0" permlanes="1.0" oneway="1" modes="bicycle,walk,escooter" >
			<attributes>
				<attribute name="bicycleInfrastructureSpeedFactor" class="java.lang.Double">1.0</attribute>
				<attribute name="carpsafe" class="java.lang.Integer">6</attribute>
				<attribute name="ebikepsafe" class="java.lang.Integer">3</attribute>
				<attribute name="escootpsafe" class="java.lang.Integer">3</attribute>
				<attribute name="origid" class="java.lang.String"></attribute>
				<attribute name="type" class="java.lang.String">primary</attribute>
				<attribute name="walkpsafe" class="java.lang.Integer">6</attribute>
			</attributes>
		</link>
		<link id="10068" from="54" to="48" length="135.436" freespeed="13.88888888888889" capacity="1200.0" permlanes="1.0" oneway="1" modes="bicycle,walk,escooter" >
			<attributes>
				<attribute name="bicycleInfrastructureSpeedFactor" class="java.lang.Double">1.0</attribute>
				<attribute name="carpsafe" class="java.lang.Integer">6</attribute>
				<attribute name="ebikepsafe" class="java.lang.Integer">3</attribute>
				<attribute name="escootpsafe" class="java.lang.Integer">3</attribute>
				<attribute name="origid" class="java.lang.String"></attribute>
				<attribute name="type" class="java.lang.String">primary</attribute>
				<attribute name="walkpsafe" class="java.lang.Integer">6</attribute>
			</attributes>
		</link>
		<link id="10069" from="260" to="59" length="130.678" freespeed="13.88888888888889" capacity="1200.0" permlanes="1.0" oneway="1" modes="escooter,bicycle,walk,car" >
			<attributes>
				<attribute name="bicycleInfrastructureSpeedFactor" class="java.lang.Double">1.0</attribute>
				<attribute name="carpsafe" class="java.lang.Integer">5</attribute>
				<attribute name="ebikepsafe" class="java.lang.Integer">2</attribute>
				<attribute name="escootpsafe" class="java.lang.Integer">2</attribute>
				<attribute name="origid" class="java.lang.String"></attribute>
				<attribute name="type" class="java.lang.String">primary</attribute>
				<attribute name="walkpsafe" class="java.lang.Integer">4</attribute>
			</attributes>
		</link>
		<link id="10070" from="60" to="261" length="107.477" freespeed="13.88888888888889" capacity="2400.0" permlanes="2.0" oneway="1" modes="escooter,bicycle,walk,car" >
			<attributes>
				<attribute name="bicycleInfrastructureSpeedFactor" class="java.lang.Double">1.0</attribute>
				<attribute name="carpsafe" class="java.lang.Integer">6</attribute>
				<attribute name="ebikepsafe" class="java.lang.Integer">3</attribute>
				<attribute name="escootpsafe" class="java.lang.Integer">2</attribute>
				<attribute name="origid" class="java.lang.String"></attribute>
				<attribute name="type" class="java.lang.String">primary</attribute>
				<attribute name="walkpsafe" class="java.lang.Integer">5</attribute>
			</attributes>
		</link>
		<link id="10071" from="53" to="59" length="90.701" freespeed="19.444444444444443" capacity="4800.0" permlanes="4.0" oneway="1" modes="car" >
			<attributes>
				<attribute name="bicycleInfrastructureSpeedFactor" class="java.lang.Double">1.0</attribute>
				<attribute name="carpsafe" class="java.lang.Integer">6</attribute>
				<attribute name="ebikepsafe" class="java.lang.Integer">3</attribute>
				<attribute name="escootpsafe" class="java.lang.Integer">3</attribute>
				<attribute name="origid" class="java.lang.String"></attribute>
				<attribute name="type" class="java.lang.String">primary</attribute>
				<attribute name="walkpsafe" class="java.lang.Integer">6</attribute>
			</attributes>
		</link>
		<link id="10072" from="59" to="60" length="85.398" freespeed="19.444444444444443" capacity="4800.0" permlanes="4.0" oneway="1" modes="car" >
			<attributes>
				<attribute name="bicycleInfrastructureSpeedFactor" class="java.lang.Double">1.0</attribute>
				<attribute name="carpsafe" class="java.lang.Integer">6</attribute>
				<attribute name="ebikepsafe" class="java.lang.Integer">3</attribute>
				<attribute name="escootpsafe" class="java.lang.Integer">3</attribute>
				<attribute name="origid" class="java.lang.String"></attribute>
				<attribute name="type" class="java.lang.String">primary</attribute>
				<attribute name="walkpsafe" class="java.lang.Integer">6</attribute>
			</attributes>
		</link>
		<link id="10073" from="82" to="61" length="132.614" freespeed="19.444444444444443" capacity="4800.0" permlanes="4.0" oneway="1" modes="car" >
			<attributes>
				<attribute name="bicycleInfrastructureSpeedFactor" class="java.lang.Double">1.0</attribute>
				<attribute name="carpsafe" class="java.lang.Integer">6</attribute>
				<attribute name="ebikepsafe" class="java.lang.Integer">3</attribute>
				<attribute name="escootpsafe" class="java.lang.Integer">3</attribute>
				<attribute name="origid" class="java.lang.String"></attribute>
				<attribute name="type" class="java.lang.String">primary</attribute>
				<attribute name="walkpsafe" class="java.lang.Integer">6</attribute>
			</attributes>
		</link>
		<link id="10074" from="61" to="55" length="55.027" freespeed="13.88888888888889" capacity="4800.0" permlanes="4.0" oneway="1" modes="car" >
			<attributes>
				<attribute name="bicycleInfrastructureSpeedFactor" class="java.lang.Double">1.0</attribute>
				<attribute name="carpsafe" class="java.lang.Integer">6</attribute>
				<attribute name="ebikepsafe" class="java.lang.Integer">3</attribute>
				<attribute name="escootpsafe" class="java.lang.Integer">2</attribute>
				<attribute name="origid" class="java.lang.String"></attribute>
				<attribute name="type" class="java.lang.String">primary</attribute>
				<attribute name="walkpsafe" class="java.lang.Integer">5</attribute>
			</attributes>
		</link>
		<link id="10077" from="55" to="58" length="144.586" freespeed="19.444444444444443" capacity="4800.0" permlanes="4.0" oneway="1" modes="car" >
			<attributes>
				<attribute name="bicycleInfrastructureSpeedFactor" class="java.lang.Double">1.0</attribute>
				<attribute name="carpsafe" class="java.lang.Integer">6</attribute>
				<attribute name="ebikepsafe" class="java.lang.Integer">3</attribute>
				<attribute name="escootpsafe" class="java.lang.Integer">3</attribute>
				<attribute name="origid" class="java.lang.String"></attribute>
				<attribute name="type" class="java.lang.String">primary</attribute>
				<attribute name="walkpsafe" class="java.lang.Integer">6</attribute>
			</attributes>
		</link>
		<link id="10078" from="55" to="58" length="144.586" freespeed="19.444444444444443" capacity="4800.0" permlanes="4.0" oneway="1" modes="bicycle,walk,escooter" >
			<attributes>
				<attribute name="bicycleInfrastructureSpeedFactor" class="java.lang.Double">1.0</attribute>
				<attribute name="carpsafe" class="java.lang.Integer">6</attribute>
				<attribute name="ebikepsafe" class="java.lang.Integer">3</attribute>
				<attribute name="escootpsafe" class="java.lang.Integer">3</attribute>
				<attribute name="origid" class="java.lang.String"></attribute>
				<attribute name="type" class="java.lang.String">primary</attribute>
				<attribute name="walkpsafe" class="java.lang.Integer">6</attribute>
			</attributes>
		</link>
		<link id="10079" from="58" to="57" length="123.815" freespeed="19.444444444444443" capacity="4800.0" permlanes="4.0" oneway="1" modes="car" >
			<attributes>
				<attribute name="bicycleInfrastructureSpeedFactor" class="java.lang.Double">1.0</attribute>
				<attribute name="carpsafe" class="java.lang.Integer">6</attribute>
				<attribute name="ebikepsafe" class="java.lang.Integer">3</attribute>
				<attribute name="escootpsafe" class="java.lang.Integer">3</attribute>
				<attribute name="origid" class="java.lang.String"></attribute>
				<attribute name="type" class="java.lang.String">primary</attribute>
				<attribute name="walkpsafe" class="java.lang.Integer">6</attribute>
			</attributes>
		</link>
		<link id="10080" from="58" to="57" length="123.815" freespeed="19.444444444444443" capacity="4800.0" permlanes="4.0" oneway="1" modes="bicycle,walk,escooter" >
			<attributes>
				<attribute name="bicycleInfrastructureSpeedFactor" class="java.lang.Double">1.0</attribute>
				<attribute name="carpsafe" class="java.lang.Integer">6</attribute>
				<attribute name="ebikepsafe" class="java.lang.Integer">3</attribute>
				<attribute name="escootpsafe" class="java.lang.Integer">3</attribute>
				<attribute name="origid" class="java.lang.String"></attribute>
				<attribute name="type" class="java.lang.String">primary</attribute>
				<attribute name="walkpsafe" class="java.lang.Integer">6</attribute>
			</attributes>
		</link>
		<link id="10081" from="57" to="54" length="93.761" freespeed="19.444444444444443" capacity="4800.0" permlanes="4.0" oneway="1" modes="bicycle,walk,escooter" >
			<attributes>
				<attribute name="bicycleInfrastructureSpeedFactor" class="java.lang.Double">1.0</attribute>
				<attribute name="carpsafe" class="java.lang.Integer">6</attribute>
				<attribute name="ebikepsafe" class="java.lang.Integer">3</attribute>
				<attribute name="escootpsafe" class="java.lang.Integer">3</attribute>
				<attribute name="origid" class="java.lang.String"></attribute>
				<attribute name="type" class="java.lang.String">primary</attribute>
				<attribute name="walkpsafe" class="java.lang.Integer">6</attribute>
			</attributes>
		</link>
		<link id="10082" from="57" to="54" length="93.761" freespeed="19.444444444444443" capacity="4800.0" permlanes="4.0" oneway="1" modes="car" >
			<attributes>
				<attribute name="bicycleInfrastructureSpeedFactor" class="java.lang.Double">1.0</attribute>
				<attribute name="carpsafe" class="java.lang.Integer">6</attribute>
				<attribute name="ebikepsafe" class="java.lang.Integer">3</attribute>
				<attribute name="escootpsafe" class="java.lang.Integer">3</attribute>
				<attribute name="origid" class="java.lang.String"></attribute>
				<attribute name="type" class="java.lang.String">primary</attribute>
				<attribute name="walkpsafe" class="java.lang.Integer">6</attribute>
			</attributes>
		</link>
		<link id="10084" from="89" to="55" length="158.784" freespeed="19.444444444444443" capacity="4800.0" permlanes="4.0" oneway="1" modes="escooter,bicycle,walk,car" >
			<attributes>
				<attribute name="bicycleInfrastructureSpeedFactor" class="java.lang.Double">1.0</attribute>
				<attribute name="carpsafe" class="java.lang.Integer">6</attribute>
				<attribute name="ebikepsafe" class="java.lang.Integer">3</attribute>
				<attribute name="escootpsafe" class="java.lang.Integer">3</attribute>
				<attribute name="origid" class="java.lang.String"></attribute>
				<attribute name="type" class="java.lang.String">primary</attribute>
				<attribute name="walkpsafe" class="java.lang.Integer">6</attribute>
			</attributes>
		</link>
		<link id="10085" from="67" to="62" length="885.629" freespeed="8.333333333333334" capacity="1200.0" permlanes="1.0" oneway="1" modes="bicycle,walk,escooter" >
			<attributes>
				<attribute name="bicycleInfrastructureSpeedFactor" class="java.lang.Double">1.0</attribute>
				<attribute name="carpsafe" class="java.lang.Integer">5</attribute>
				<attribute name="ebikepsafe" class="java.lang.Integer">3</attribute>
				<attribute name="escootpsafe" class="java.lang.Integer">3</attribute>
				<attribute name="origid" class="java.lang.String"></attribute>
				<attribute name="type" class="java.lang.String">primary</attribute>
				<attribute name="walkpsafe" class="java.lang.Integer">6</attribute>
			</attributes>
		</link>
		<link id="10086" from="62" to="63" length="637.209" freespeed="8.333333333333334" capacity="1200.0" permlanes="1.0" oneway="1" modes="bicycle,walk,escooter" >
			<attributes>
				<attribute name="bicycleInfrastructureSpeedFactor" class="java.lang.Double">1.0</attribute>
				<attribute name="carpsafe" class="java.lang.Integer">5</attribute>
				<attribute name="ebikepsafe" class="java.lang.Integer">3</attribute>
				<attribute name="escootpsafe" class="java.lang.Integer">3</attribute>
				<attribute name="origid" class="java.lang.String"></attribute>
				<attribute name="type" class="java.lang.String">primary</attribute>
				<attribute name="walkpsafe" class="java.lang.Integer">6</attribute>
			</attributes>
		</link>
		<link id="10087" from="63" to="258" length="245.032" freespeed="8.333333333333334" capacity="1200.0" permlanes="1.0" oneway="1" modes="bicycle,walk,escooter" >
			<attributes>
				<attribute name="bicycleInfrastructureSpeedFactor" class="java.lang.Double">1.0</attribute>
				<attribute name="carpsafe" class="java.lang.Integer">5</attribute>
				<attribute name="ebikepsafe" class="java.lang.Integer">3</attribute>
				<attribute name="escootpsafe" class="java.lang.Integer">3</attribute>
				<attribute name="origid" class="java.lang.String"></attribute>
				<attribute name="type" class="java.lang.String">primary</attribute>
				<attribute name="walkpsafe" class="java.lang.Integer">6</attribute>
			</attributes>
		</link>
		<link id="10088" from="10" to="65" length="375.803" freespeed="8.333333333333334" capacity="1200.0" permlanes="1.0" oneway="1" modes="bicycle,walk,escooter" >
			<attributes>
				<attribute name="bicycleInfrastructureSpeedFactor" class="java.lang.Double">1.0</attribute>
				<attribute name="carpsafe" class="java.lang.Integer">5</attribute>
				<attribute name="ebikepsafe" class="java.lang.Integer">3</attribute>
				<attribute name="escootpsafe" class="java.lang.Integer">3</attribute>
				<attribute name="origid" class="java.lang.String"></attribute>
				<attribute name="type" class="java.lang.String">primary</attribute>
				<attribute name="walkpsafe" class="java.lang.Integer">6</attribute>
			</attributes>
		</link>
[...]
				<attribute name="walkpsafe" class="java.lang.Integer">6</attribute>
			</attributes>
		</link>
		<link id="110240" from="157" to="160" length="41.477" freespeed="13.88888888888889" capacity="1200.0" permlanes="1.0" oneway="1" modes="escooter,bicycle,walk,car" >
			<attributes>
				<attribute name="bicycleInfrastructureSpeedFactor" class="java.lang.Double">1.0</attribute>
				<attribute name="carpsafe" class="java.lang.Integer">5</attribute>
				<attribute name="ebikepsafe" class="java.lang.Integer">2</attribute>
				<attribute name="escootpsafe" class="java.lang.Integer">2</attribute>
				<attribute name="origid" class="java.lang.String"></attribute>
				<attribute name="type" class="java.lang.String">primary</attribute>
				<attribute name="walkpsafe" class="java.lang.Integer">5</attribute>
			</attributes>
		</link>
		<link id="110241" from="158" to="157" length="60.636" freespeed="13.88888888888889" capacity="1200.0" permlanes="1.0" oneway="1" modes="escooter,bicycle,walk,car" >
			<attributes>
				<attribute name="bicycleInfrastructureSpeedFactor" class="java.lang.Double">1.0</attribute>
				<attribute name="carpsafe" class="java.lang.Integer">5</attribute>
				<attribute name="ebikepsafe" class="java.lang.Integer">2</attribute>
				<attribute name="escootpsafe" class="java.lang.Integer">2</attribute>
				<attribute name="origid" class="java.lang.String"></attribute>
				<attribute name="type" class="java.lang.String">primary</attribute>
				<attribute name="walkpsafe" class="java.lang.Integer">5</attribute>
			</attributes>
		</link>
		<link id="110242" from="159" to="158" length="18.184" freespeed="13.88888888888889" capacity="1200.0" permlanes="1.0" oneway="1" modes="escooter,bicycle,walk,car" >
			<attributes>
				<attribute name="bicycleInfrastructureSpeedFactor" class="java.lang.Double">1.0</attribute>
				<attribute name="carpsafe" class="java.lang.Integer">5</attribute>
				<attribute name="ebikepsafe" class="java.lang.Integer">2</attribute>
				<attribute name="escootpsafe" class="java.lang.Integer">2</attribute>
				<attribute name="origid" class="java.lang.String"></attribute>
				<attribute name="type" class="java.lang.String">primary</attribute>
				<attribute name="walkpsafe" class="java.lang.Integer">5</attribute>
			</attributes>
		</link>
		<link id="110243" from="156" to="159" length="58.343" freespeed="13.88888888888889" capacity="1200.0" permlanes="1.0" oneway="1" modes="escooter,bicycle,walk,car" >
			<attributes>
				<attribute name="bicycleInfrastructureSpeedFactor" class="java.lang.Double">1.0</attribute>
				<attribute name="carpsafe" class="java.lang.Integer">5</attribute>
				<attribute name="ebikepsafe" class="java.lang.Integer">2</attribute>
				<attribute name="escootpsafe" class="java.lang.Integer">2</attribute>
				<attribute name="origid" class="java.lang.String"></attribute>
				<attribute name="type" class="java.lang.String">primary</attribute>
				<attribute name="walkpsafe" class="java.lang.Integer">5</attribute>
			</attributes>
		</link>
		<link id="110244" from="157" to="156" length="28.22" freespeed="13.88888888888889" capacity="1200.0" permlanes="1.0" oneway="1" modes="escooter,bicycle,walk,car" >
			<attributes>
				<attribute name="bicycleInfrastructureSpeedFactor" class="java.lang.Double">1.0</attribute>
				<attribute name="carpsafe" class="java.lang.Integer">5</attribute>
				<attribute name="ebikepsafe" class="java.lang.Integer">2</attribute>
				<attribute name="escootpsafe" class="java.lang.Integer">2</attribute>
				<attribute name="origid" class="java.lang.String"></attribute>
				<attribute name="type" class="java.lang.String">primary</attribute>
				<attribute name="walkpsafe" class="java.lang.Integer">5</attribute>
			</attributes>
		</link>
		<link id="110245" from="167" to="17" length="43.368" freespeed="13.88888888888889" capacity="1200.0" permlanes="1.0" oneway="1" modes="escooter,bicycle,walk,car" >
			<attributes>
				<attribute name="bicycleInfrastructureSpeedFactor" class="java.lang.Double">1.0</attribute>
				<attribute name="carpsafe" class="java.lang.Integer">5</attribute>
				<attribute name="ebikepsafe" class="java.lang.Integer">3</attribute>
				<attribute name="escootpsafe" class="java.lang.Integer">2</attribute>
				<attribute name="origid" class="java.lang.String"></attribute>
				<attribute name="type" class="java.lang.String">primary</attribute>
				<attribute name="walkpsafe" class="java.lang.Integer">5</attribute>
			</attributes>
		</link>
		<link id="110246" from="168" to="167" length="42.104" freespeed="13.88888888888889" capacity="1200.0" permlanes="1.0" oneway="1" modes="escooter,bicycle,walk,car" >
			<attributes>
				<attribute name="bicycleInfrastructureSpeedFactor" class="java.lang.Double">1.0</attribute>
				<attribute name="carpsafe" class="java.lang.Integer">5</attribute>
				<attribute name="ebikepsafe" class="java.lang.Integer">3</attribute>
				<attribute name="escootpsafe" class="java.lang.Integer">2</attribute>
				<attribute name="origid" class="java.lang.String"></attribute>
				<attribute name="type" class="java.lang.String">primary</attribute>
				<attribute name="walkpsafe" class="java.lang.Integer">5</attribute>
			</attributes>
		</link>
		<link id="110247" from="169" to="168" length="28.765" freespeed="13.88888888888889" capacity="1200.0" permlanes="1.0" oneway="1" modes="escooter,bicycle,walk,car" >
			<attributes>
				<attribute name="bicycleInfrastructureSpeedFactor" class="java.lang.Double">1.0</attribute>
				<attribute name="carpsafe" class="java.lang.Integer">5</attribute>
				<attribute name="ebikepsafe" class="java.lang.Integer">3</attribute>
				<attribute name="escootpsafe" class="java.lang.Integer">2</attribute>
				<attribute name="origid" class="java.lang.String"></attribute>
				<attribute name="type" class="java.lang.String">primary</attribute>
				<attribute name="walkpsafe" class="java.lang.Integer">5</attribute>
			</attributes>
		</link>
		<link id="110248" from="170" to="169" length="108.877" freespeed="13.88888888888889" capacity="1200.0" permlanes="1.0" oneway="1" modes="escooter,bicycle,walk,car" >
			<attributes>
				<attribute name="bicycleInfrastructureSpeedFactor" class="java.lang.Double">1.0</attribute>
				<attribute name="carpsafe" class="java.lang.Integer">5</attribute>
				<attribute name="ebikepsafe" class="java.lang.Integer">3</attribute>
				<attribute name="escootpsafe" class="java.lang.Integer">2</attribute>
				<attribute name="origid" class="java.lang.String"></attribute>
				<attribute name="type" class="java.lang.String">primary</attribute>
				<attribute name="walkpsafe" class="java.lang.Integer">5</attribute>
			</attributes>
		</link>
		<link id="110249" from="171" to="170" length="74.592" freespeed="13.88888888888889" capacity="1200.0" permlanes="1.0" oneway="1" modes="escooter,bicycle,walk,car" >
			<attributes>
				<attribute name="bicycleInfrastructureSpeedFactor" class="java.lang.Double">1.0</attribute>
				<attribute name="carpsafe" class="java.lang.Integer">5</attribute>
				<attribute name="ebikepsafe" class="java.lang.Integer">3</attribute>
				<attribute name="escootpsafe" class="java.lang.Integer">2</attribute>
				<attribute name="origid" class="java.lang.String"></attribute>
				<attribute name="type" class="java.lang.String">primary</attribute>
				<attribute name="walkpsafe" class="java.lang.Integer">5</attribute>
			</attributes>
		</link>
		<link id="110250" from="172" to="171" length="60.351" freespeed="13.88888888888889" capacity="1200.0" permlanes="1.0" oneway="1" modes="escooter,bicycle,walk,car" >
			<attributes>
				<attribute name="bicycleInfrastructureSpeedFactor" class="java.lang.Double">1.0</attribute>
				<attribute name="carpsafe" class="java.lang.Integer">5</attribute>
				<attribute name="ebikepsafe" class="java.lang.Integer">3</attribute>
				<attribute name="escootpsafe" class="java.lang.Integer">2</attribute>
				<attribute name="origid" class="java.lang.String"></attribute>
				<attribute name="type" class="java.lang.String">primary</attribute>
				<attribute name="walkpsafe" class="java.lang.Integer">5</attribute>
			</attributes>
		</link>
		<link id="110251" from="64" to="172" length="85.057" freespeed="13.88888888888889" capacity="1200.0" permlanes="1.0" oneway="1" modes="escooter,bicycle,walk,car" >
			<attributes>
				<attribute name="bicycleInfrastructureSpeedFactor" class="java.lang.Double">1.0</attribute>
				<attribute name="carpsafe" class="java.lang.Integer">5</attribute>
				<attribute name="ebikepsafe" class="java.lang.Integer">3</attribute>
				<attribute name="escootpsafe" class="java.lang.Integer">2</attribute>
				<attribute name="origid" class="java.lang.String"></attribute>
				<attribute name="type" class="java.lang.String">primary</attribute>
				<attribute name="walkpsafe" class="java.lang.Integer">5</attribute>
			</attributes>
		</link>
		<link id="110258" from="174" to="175" length="27.497" freespeed="13.88888888888889" capacity="1200.0" permlanes="1.0" oneway="1" modes="escooter,bicycle,walk,car" >
			<attributes>
				<attribute name="bicycleInfrastructureSpeedFactor" class="java.lang.Double">1.0</attribute>
				<attribute name="carpsafe" class="java.lang.Integer">5</attribute>
				<attribute name="ebikepsafe" class="java.lang.Integer">3</attribute>
				<attribute name="escootpsafe" class="java.lang.Integer">2</attribute>
				<attribute name="origid" class="java.lang.String"></attribute>
				<attribute name="type" class="java.lang.String">primary</attribute>
				<attribute name="walkpsafe" class="java.lang.Integer">6</attribute>
			</attributes>
		</link>
		<link id="110259" from="64" to="174" length="37.64" freespeed="13.88888888888889" capacity="1200.0" permlanes="1.0" oneway="1" modes="escooter,bicycle,walk,car" >
			<attributes>
				<attribute name="bicycleInfrastructureSpeedFactor" class="java.lang.Double">1.0</attribute>
				<attribute name="carpsafe" class="java.lang.Integer">5</attribute>
				<attribute name="ebikepsafe" class="java.lang.Integer">3</attribute>
				<attribute name="escootpsafe" class="java.lang.Integer">2</attribute>
				<attribute name="origid" class="java.lang.String"></attribute>
				<attribute name="type" class="java.lang.String">primary</attribute>
				<attribute name="walkpsafe" class="java.lang.Integer">6</attribute>
			</attributes>
		</link>
		<link id="110289" from="26" to="196" length="19.723" freespeed="13.88888888888889" capacity="1200.0" permlanes="1.0" oneway="1" modes="escooter,bicycle,walk,car" >
			<attributes>
				<attribute name="bicycleInfrastructureSpeedFactor" class="java.lang.Double">1.0</attribute>
				<attribute name="carpsafe" class="java.lang.Integer">5</attribute>
				<attribute name="ebikepsafe" class="java.lang.Integer">2</attribute>
				<attribute name="escootpsafe" class="java.lang.Integer">2</attribute>
				<attribute name="origid" class="java.lang.String"></attribute>
				<attribute name="type" class="java.lang.String">primary</attribute>
				<attribute name="walkpsafe" class="java.lang.Integer">6</attribute>
			</attributes>
		</link>
		<link id="110327" from="190" to="191" length="57.914" freespeed="13.88888888888889" capacity="1200.0" permlanes="1.0" oneway="1" modes="escooter,bicycle,walk,car" >
			<attributes>
				<attribute name="bicycleInfrastructureSpeedFactor" class="java.lang.Double">1.0</attribute>
				<attribute name="carpsafe" class="java.lang.Integer">5</attribute>
				<attribute name="ebikepsafe" class="java.lang.Integer">2</attribute>
				<attribute name="escootpsafe" class="java.lang.Integer">2</attribute>
				<attribute name="origid" class="java.lang.String"></attribute>
				<attribute name="type" class="java.lang.String">primary</attribute>
				<attribute name="walkpsafe" class="java.lang.Integer">4</attribute>
			</attributes>
		</link>
		<link id="110338" from="153" to="235" length="18.011" freespeed="13.88888888888889" capacity="1200.0" permlanes="1.0" oneway="1" modes="escooter,bicycle,walk,car" >
			<attributes>
				<attribute name="bicycleInfrastructureSpeedFactor" class="java.lang.Double">1.0</attribute>
				<attribute name="carpsafe" class="java.lang.Integer">5</attribute>
				<attribute name="ebikepsafe" class="java.lang.Integer">2</attribute>
				<attribute name="escootpsafe" class="java.lang.Integer">2</attribute>
				<attribute name="origid" class="java.lang.String"></attribute>
				<attribute name="type" class="java.lang.String">primary</attribute>
				<attribute name="walkpsafe" class="java.lang.Integer">4</attribute>
			</attributes>
		</link>
		<link id="110349" from="257" to="131" length="22.966" freespeed="13.88888888888889" capacity="1200.0" permlanes="1.0" oneway="1" modes="escooter,bicycle,walk,car" >
			<attributes>
				<attribute name="bicycleInfrastructureSpeedFactor" class="java.lang.Double">1.0</attribute>
				<attribute name="carpsafe" class="java.lang.Integer">6</attribute>
				<attribute name="ebikepsafe" class="java.lang.Integer">3</attribute>
				<attribute name="escootpsafe" class="java.lang.Integer">3</attribute>
				<attribute name="origid" class="java.lang.String"></attribute>
				<attribute name="type" class="java.lang.String">primary</attribute>
				<attribute name="walkpsafe" class="java.lang.Integer">6</attribute>
			</attributes>
		</link>
		<link id="110361" from="224" to="225" length="54.531" freespeed="13.88888888888889" capacity="1200.0" permlanes="1.0" oneway="1" modes="escooter,bicycle,walk,car" >
			<attributes>
				<attribute name="bicycleInfrastructureSpeedFactor" class="java.lang.Double">1.0</attribute>
				<attribute name="carpsafe" class="java.lang.Integer">5</attribute>
				<attribute name="ebikepsafe" class="java.lang.Integer">2</attribute>
				<attribute name="escootpsafe" class="java.lang.Integer">2</attribute>
				<attribute name="origid" class="java.lang.String"></attribute>
				<attribute name="type" class="java.lang.String">primary</attribute>
				<attribute name="walkpsafe" class="java.lang.Integer">4</attribute>
			</attributes>
		</link>
		<link id="110374" from="227" to="240" length="62.033" freespeed="8.333333333333334" capacity="1200.0" permlanes="1.0" oneway="1" modes="bicycle,walk,escooter" >
			<attributes>
				<attribute name="bicycleInfrastructureSpeedFactor" class="java.lang.Double">1.0</attribute>
				<attribute name="carpsafe" class="java.lang.Integer">6</attribute>
				<attribute name="ebikepsafe" class="java.lang.Integer">4</attribute>
				<attribute name="escootpsafe" class="java.lang.Integer">3</attribute>
				<attribute name="origid" class="java.lang.String"></attribute>
				<attribute name="type" class="java.lang.String">primary</attribute>
				<attribute name="walkpsafe" class="java.lang.Integer">6</attribute>
			</attributes>
		</link>
		<link id="110391" from="236" to="227" length="32.338" freespeed="8.333333333333334" capacity="1200.0" permlanes="1.0" oneway="1" modes="bicycle,walk,escooter" >
			<attributes>
				<attribute name="bicycleInfrastructureSpeedFactor" class="java.lang.Double">1.0</attribute>
				<attribute name="carpsafe" class="java.lang.Integer">6</attribute>
				<attribute name="ebikepsafe" class="java.lang.Integer">4</attribute>
				<attribute name="escootpsafe" class="java.lang.Integer">4</attribute>
				<attribute name="origid" class="java.lang.String"></attribute>
				<attribute name="type" class="java.lang.String">primary</attribute>
				<attribute name="walkpsafe" class="java.lang.Integer">6</attribute>
			</attributes>
		</link>
		<link id="110392" from="64" to="258" length="37.362" freespeed="8.333333333333334" capacity="1200.0" permlanes="1.0" oneway="1" modes="escooter,bicycle,walk,car" >
			<attributes>
				<attribute name="bicycleInfrastructureSpeedFactor" class="java.lang.Double">1.0</attribute>
				<attribute name="carpsafe" class="java.lang.Integer">5</attribute>
				<attribute name="ebikepsafe" class="java.lang.Integer">3</attribute>
				<attribute name="escootpsafe" class="java.lang.Integer">3</attribute>
				<attribute name="origid" class="java.lang.String"></attribute>
				<attribute name="type" class="java.lang.String">primary</attribute>
				<attribute name="walkpsafe" class="java.lang.Integer">6</attribute>
			</attributes>
		</link>
		<link id="110401" from="23" to="22" length="63.425" freespeed="19.444444444444443" capacity="2400.0" permlanes="2.0" oneway="1" modes="car" >
			<attributes>
				<attribute name="bicycleInfrastructureSpeedFactor" class="java.lang.Double">1.0</attribute>
				<attribute name="carpsafe" class="java.lang.Integer">5</attribute>
				<attribute name="ebikepsafe" class="java.lang.Integer">2</attribute>
				<attribute name="escootpsafe" class="java.lang.Integer">2</attribute>
				<attribute name="origid" class="java.lang.String"></attribute>
				<attribute name="type" class="java.lang.String">primary</attribute>
				<attribute name="walkpsafe" class="java.lang.Integer">4</attribute>
			</attributes>
		</link>
		<link id="110402" from="22" to="21" length="78.713" freespeed="19.444444444444443" capacity="2400.0" permlanes="2.0" oneway="1" modes="car" >
			<attributes>
				<attribute name="bicycleInfrastructureSpeedFactor" class="java.lang.Double">1.0</attribute>
				<attribute name="carpsafe" class="java.lang.Integer">5</attribute>
				<attribute name="ebikepsafe" class="java.lang.Integer">2</attribute>
				<attribute name="escootpsafe" class="java.lang.Integer">2</attribute>
				<attribute name="origid" class="java.lang.String"></attribute>
				<attribute name="type" class="java.lang.String">primary</attribute>
				<attribute name="walkpsafe" class="java.lang.Integer">4</attribute>
			</attributes>
		</link>
		<link id="110403" from="21" to="20" length="110.36" freespeed="19.444444444444443" capacity="2400.0" permlanes="2.0" oneway="1" modes="car" >
			<attributes>
				<attribute name="bicycleInfrastructureSpeedFactor" class="java.lang.Double">1.0</attribute>
				<attribute name="carpsafe" class="java.lang.Integer">5</attribute>
				<attribute name="ebikepsafe" class="java.lang.Integer">2</attribute>
				<attribute name="escootpsafe" class="java.lang.Integer">2</attribute>
				<attribute name="origid" class="java.lang.String"></attribute>
				<attribute name="type" class="java.lang.String">primary</attribute>
				<attribute name="walkpsafe" class="java.lang.Integer">4</attribute>
			</attributes>
		</link>
		<link id="110404" from="20" to="9" length="159.352" freespeed="19.444444444444443" capacity="2400.0" permlanes="2.0" oneway="1" modes="escooter,bicycle,walk,car" >
			<attributes>
				<attribute name="bicycleInfrastructureSpeedFactor" class="java.lang.Double">1.0</attribute>
				<attribute name="carpsafe" class="java.lang.Integer">6</attribute>
				<attribute name="ebikepsafe" class="java.lang.Integer">3</attribute>
				<attribute name="escootpsafe" class="java.lang.Integer">2</attribute>
				<attribute name="origid" class="java.lang.String"></attribute>
				<attribute name="type" class="java.lang.String">primary</attribute>
				<attribute name="walkpsafe" class="java.lang.Integer">5</attribute>
			</attributes>
		</link>
		<link id="110405" from="9" to="10" length="352.843" freespeed="13.88888888888889" capacity="2400.0" permlanes="2.0" oneway="1" modes="escooter,bicycle,walk,car" >
			<attributes>
				<attribute name="bicycleInfrastructureSpeedFactor" class="java.lang.Double">1.0</attribute>
				<attribute name="carpsafe" class="java.lang.Integer">5</attribute>
				<attribute name="ebikepsafe" class="java.lang.Integer">2</attribute>
				<attribute name="escootpsafe" class="java.lang.Integer">2</attribute>
				<attribute name="origid" class="java.lang.String"></attribute>
				<attribute name="type" class="java.lang.String">primary</attribute>
				<attribute name="walkpsafe" class="java.lang.Integer">4</attribute>
			</attributes>
		</link>
	</links>

<!-- ====================================================================== -->

</network>
