<?xml version="1.0" encoding="UTF-8"?>

<carriers xmlns="http://www.matsim.org/files/dtd" xmlns:xsi="http://www.w3.org/2001/XMLSchema-instance" xsi:schemaLocation="http://www.matsim.org/files/dtd http://www.matsim.org/files/dtd/carriersDefinitions_v2.1.xsd">
	<carrier id="testCarrier1">
		<attributes>
			<attribute name="jspritComputationTime" class="java.lang.Double">0.336</attribute>
			<attribute name="jspritIterations" class="java.lang.Integer">5</attribute>
		</attributes>
		<capabilities fleetSize="FINITE">
			<vehicles>
				<vehicle id="testVehicle1_testCarrier1_i(2,0)_start27000_1" depotLinkId="i(2,0)" typeId="testVehicle1" earliestStart="07:30:00" latestEnd="15:30:00"/>
			</vehicles>
		</capabilities>
		<shipments>
			<shipment id="Shipment_i(2,0)_j(1,2)" from="i(2,0)" to="j(1,2)" size="1" startPickup="07:00:00" endPickup="18:00:00" startDelivery="07:00:00" endDelivery="18:00:00" pickupServiceTime="00:00:00" deliveryServiceTime="00:03:00"/>
			<shipment id="Shipment_i(2,0)_j(6,4)R" from="i(2,0)" to="j(6,4)R" size="1" startPickup="07:00:00" endPickup="18:00:00" startDelivery="07:00:00" endDelivery="18:00:00" pickupServiceTime="00:00:00" deliveryServiceTime="00:03:00"/>
			<shipment id="Shipment_i(2,0)_j(9,5)" from="i(2,0)" to="j(9,5)" size="1" startPickup="07:00:00" endPickup="18:00:00" startDelivery="07:00:00" endDelivery="18:00:00" pickupServiceTime="00:00:00" deliveryServiceTime="00:03:00"/>
			<shipment id="Shipment_i(2,0)_i(6,7)R" from="i(2,0)" to="i(6,7)R" size="1" startPickup="07:00:00" endPickup="18:00:00" startDelivery="07:00:00" endDelivery="18:00:00" pickupServiceTime="00:00:00" deliveryServiceTime="00:03:00"/>
			<shipment id="Shipment_i(2,0)_j(8,2)R" from="i(2,0)" to="j(8,2)R" size="1" startPickup="07:00:00" endPickup="18:00:00" startDelivery="07:00:00" endDelivery="18:00:00" pickupServiceTime="00:00:00" deliveryServiceTime="00:03:00"/>
			<shipment id="Shipment_i(2,0)_j(7,5)" from="i(2,0)" to="j(7,5)" size="1" startPickup="07:00:00" endPickup="18:00:00" startDelivery="07:00:00" endDelivery="18:00:00" pickupServiceTime="00:00:00" deliveryServiceTime="00:03:00"/>
			<shipment id="Shipment_i(2,0)_i(9,1)R" from="i(2,0)" to="i(9,1)R" size="1" startPickup="07:00:00" endPickup="18:00:00" startDelivery="07:00:00" endDelivery="18:00:00" pickupServiceTime="00:00:00" deliveryServiceTime="00:03:00"/>
			<shipment id="Shipment_i(2,0)_i(9,2)" from="i(2,0)" to="i(9,2)" size="1" startPickup="07:00:00" endPickup="18:00:00" startDelivery="07:00:00" endDelivery="18:00:00" pickupServiceTime="00:00:00" deliveryServiceTime="00:03:00"/>
			<shipment id="Shipment_i(2,0)_j(0,4)R" from="i(2,0)" to="j(0,4)R" size="1" startPickup="07:00:00" endPickup="18:00:00" startDelivery="07:00:00" endDelivery="18:00:00" pickupServiceTime="00:00:00" deliveryServiceTime="00:03:00"/>
			<shipment id="Shipment_i(2,0)_i(2,8)" from="i(2,0)" to="i(2,8)" size="1" startPickup="07:00:00" endPickup="18:00:00" startDelivery="07:00:00" endDelivery="18:00:00" pickupServiceTime="00:00:00" deliveryServiceTime="00:03:00"/>
			<shipment id="Shipment_i(2,0)_j(1,9)" from="i(2,0)" to="j(1,9)" size="1" startPickup="07:00:00" endPickup="18:00:00" startDelivery="07:00:00" endDelivery="18:00:00" pickupServiceTime="00:00:00" deliveryServiceTime="00:03:00"/>
			<shipment id="Shipment_i(2,0)_i(7,0)" from="i(2,0)" to="i(7,0)" size="1" startPickup="07:00:00" endPickup="18:00:00" startDelivery="07:00:00" endDelivery="18:00:00" pickupServiceTime="00:00:00" deliveryServiceTime="00:03:00"/>
			<shipment id="Shipment_i(2,0)_j(7,3)" from="i(2,0)" to="j(7,3)" size="1" startPickup="07:00:00" endPickup="18:00:00" startDelivery="07:00:00" endDelivery="18:00:00" pickupServiceTime="00:00:00" deliveryServiceTime="00:03:00"/>
			<shipment id="Shipment_i(2,0)_i(4,9)R" from="i(2,0)" to="i(4,9)R" size="1" startPickup="07:00:00" endPickup="18:00:00" startDelivery="07:00:00" endDelivery="18:00:00" pickupServiceTime="00:00:00" deliveryServiceTime="00:03:00"/>
			<shipment id="Shipment_i(2,0)_j(0,1)R" from="i(2,0)" to="j(0,1)R" size="1" startPickup="07:00:00" endPickup="18:00:00" startDelivery="07:00:00" endDelivery="18:00:00" pickupServiceTime="00:00:00" deliveryServiceTime="00:03:00"/>
		</shipments>
		<plans>
			<plan score="-172.81369999999998" selected="true">
				<attributes>
					<attribute name="jspritScore" class="java.lang.Double">-185.8166666666667</attribute>
				</attributes>
				<tour tourId="1" vehicleId="testVehicle1_testCarrier1_i(2,0)_start27000_1">
					<act type="start" end_time="07:30:00"/>
					<leg expected_dep_time="07:30:00" expected_transp_time="00:00:00">
						<route></route>
					</leg>
					<act type="pickup" shipmentId="Shipment_i(2,0)_j(1,2)"/>
					<leg expected_dep_time="07:30:00" expected_transp_time="00:00:00">
						<route></route>
					</leg>
					<act type="pickup" shipmentId="Shipment_i(2,0)_i(7,0)"/>
					<leg expected_dep_time="07:30:00" expected_transp_time="00:00:00">
						<route></route>
					</leg>
					<act type="pickup" shipmentId="Shipment_i(2,0)_j(0,1)R"/>
					<leg expected_dep_time="07:30:00" expected_transp_time="00:00:00">
						<route></route>
					</leg>
					<act type="pickup" shipmentId="Shipment_i(2,0)_j(7,3)"/>
					<leg expected_dep_time="07:30:00" expected_transp_time="00:00:00">
						<route></route>
					</leg>
					<act type="pickup" shipmentId="Shipment_i(2,0)_j(8,2)R"/>
					<leg expected_dep_time="07:30:00" expected_transp_time="00:00:00">
						<route></route>
					</leg>
					<act type="pickup" shipmentId="Shipment_i(2,0)_j(6,4)R"/>
					<leg expected_dep_time="07:30:00" expected_transp_time="00:00:00">
						<route></route>
					</leg>
					<act type="pickup" shipmentId="Shipment_i(2,0)_i(9,2)"/>
					<leg expected_dep_time="07:30:00" expected_transp_time="00:00:00">
						<route></route>
					</leg>
					<act type="pickup" shipmentId="Shipment_i(2,0)_i(9,1)R"/>
					<leg expected_dep_time="07:30:00" expected_transp_time="00:00:00">
						<route></route>
					</leg>
					<act type="pickup" shipmentId="Shipment_i(2,0)_j(7,5)"/>
					<leg expected_dep_time="07:30:00" expected_transp_time="00:00:00">
						<route></route>
					</leg>
					<act type="pickup" shipmentId="Shipment_i(2,0)_j(0,4)R"/>
					<leg expected_dep_time="07:30:00" expected_transp_time="00:00:00">
						<route></route>
					</leg>
					<act type="pickup" shipmentId="Shipment_i(2,0)_j(9,5)"/>
					<leg expected_dep_time="07:30:00" expected_transp_time="00:00:00">
						<route></route>
					</leg>
					<act type="pickup" shipmentId="Shipment_i(2,0)_j(1,9)"/>
					<leg expected_dep_time="07:30:00" expected_transp_time="00:00:00">
						<route></route>
					</leg>
					<act type="pickup" shipmentId="Shipment_i(2,0)_i(2,8)"/>
					<leg expected_dep_time="07:30:00" expected_transp_time="00:00:00">
						<route></route>
					</leg>
					<act type="pickup" shipmentId="Shipment_i(2,0)_i(6,7)R"/>
					<leg expected_dep_time="07:30:00" expected_transp_time="00:00:00">
						<route></route>
					</leg>
					<act type="pickup" shipmentId="Shipment_i(2,0)_i(4,9)R"/>
					<leg expected_dep_time="07:30:00" expected_transp_time="00:11:06">
						<route>i(3,0) i(4,0) i(5,0) i(6,0)</route>
					</leg>
					<act type="delivery" shipmentId="Shipment_i(2,0)_i(7,0)"/>
					<leg expected_dep_time="07:44:06" expected_transp_time="00:08:53">
						<route>i(8,0) i(9,0) j(9,1)</route>
					</leg>
					<act type="delivery" shipmentId="Shipment_i(2,0)_i(9,1)R"/>
					<leg expected_dep_time="07:55:59" expected_transp_time="00:06:39">
						<route>i(8,1)R j(7,2)</route>
					</leg>
					<act type="delivery" shipmentId="Shipment_i(2,0)_j(7,3)"/>
					<leg expected_dep_time="08:05:39" expected_transp_time="00:04:26">
						<route>j(7,4)</route>
					</leg>
					<act type="delivery" shipmentId="Shipment_i(2,0)_j(7,5)"/>
					<leg expected_dep_time="08:13:06" expected_transp_time="00:06:39">
						<route>i(7,5)R j(6,5)R</route>
					</leg>
					<act type="delivery" shipmentId="Shipment_i(2,0)_j(6,4)R"/>
					<leg expected_dep_time="08:22:46" expected_transp_time="00:08:53">
						<route>j(6,3)R i(7,2) i(8,2)</route>
					</leg>
					<act type="delivery" shipmentId="Shipment_i(2,0)_j(8,2)R"/>
					<leg expected_dep_time="08:34:39" expected_transp_time="00:08:53">
						<route>i(8,1)R j(7,2) i(8,2)</route>
					</leg>
					<act type="delivery" shipmentId="Shipment_i(2,0)_i(9,2)"/>
					<leg expected_dep_time="08:46:33" expected_transp_time="00:06:39">
						<route>j(9,3) j(9,4)</route>
					</leg>
					<act type="delivery" shipmentId="Shipment_i(2,0)_j(9,5)"/>
					<leg expected_dep_time="08:56:13" expected_transp_time="00:13:19">
						<route>i(9,5)R i(8,5)R j(7,6) j(7,7) i(7,7)R</route>
					</leg>
					<act type="delivery" shipmentId="Shipment_i(2,0)_i(6,7)R"/>
					<leg expected_dep_time="09:12:33" expected_transp_time="00:08:53">
						<route>j(5,8) j(5,9) i(5,9)R</route>
					</leg>
					<act type="delivery" shipmentId="Shipment_i(2,0)_i(4,9)R"/>
					<leg expected_dep_time="09:24:26" expected_transp_time="00:13:20">
						<route>i(3,9)R i(2,9)R i(1,9)R j(0,9)R i(1,8)</route>
					</leg>
					<act type="delivery" shipmentId="Shipment_i(2,0)_j(1,9)"/>
					<leg expected_dep_time="09:40:46" expected_transp_time="00:08:53">
						<route>i(1,9)R j(0,9)R i(1,8)</route>
					</leg>
					<act type="delivery" shipmentId="Shipment_i(2,0)_i(2,8)"/>
					<leg expected_dep_time="09:52:40" expected_transp_time="00:15:33">
						<route>j(2,8)R i(2,7)R i(1,7)R j(0,7)R j(0,6)R j(0,5)R</route>
					</leg>
					<act type="delivery" shipmentId="Shipment_i(2,0)_j(0,4)R"/>
					<leg expected_dep_time="10:11:13" expected_transp_time="00:06:40">
						<route>j(0,3)R j(0,2)R</route>
					</leg>
					<act type="delivery" shipmentId="Shipment_i(2,0)_j(0,1)R"/>
					<leg expected_dep_time="10:20:53" expected_transp_time="00:06:40">
						<route>i(1,0) j(1,1)</route>
					</leg>
					<act type="delivery" shipmentId="Shipment_i(2,0)_j(1,2)"/>
					<leg expected_dep_time="10:30:33" expected_transp_time="00:15:33">
						<route>i(2,2) j(2,2)R i(2,1)R i(1,1)R j(0,1)R i(1,0)</route>
					</leg>
					<act type="end"/>
				</tour>
			</plan>
		</plans>
	</carrier>
</carriers>