<?xml version="1.0" encoding="utf-8"?>
<!DOCTYPE plans SYSTEM "http://www.matsim.org/files/dtd/plans_v4.dtd">
<plans>
<!-- ====================================================================== -->
	<person id="passenger">
		<plan>
			<act type="h" link="41" end_time="07:55:00" />
			<leg mode="car" >
				<route trav_time="00:00:05">
					1 0
				</route>
			</leg>
			<act type="transitInteraction" end_time="00:00:00" link="20"/>
			<leg mode="pt">
				<route trav_time="00:00:00">
					PT1===stop1===Blue Line===Blue Route 0_20===stop4 
				</route>
			</leg>
			<act type="transitInteraction" end_time="00:00:00" link="23" />
			<leg mode="walk" trav_time="00:00:02">
				<route>
				
				</route>
			</leg>
			<act type="transitInteraction" end_time="00:00:00" link="23"/>
			<leg mode="pt">
				<route trav_time="00:00:00">
					PT1===stop4===Green Line===Green Route 20_24===stop7 
				</route>
			</leg>
			<act type="transitInteraction" end_time="00:00:00" link="18"/>
			<leg mode="car" trav_time="00:00:05">
				<route>
					23 18
				</route>
			</leg>
			<act type="w" link="75" />
		</plan>	
	</person>
 <!-- ====================================================================== -->
</plans>