2015-04-12 22:37:44,182  INFO Gbl:57 JVM: 1.7.0_75; Oracle Corporation; mixed mode; 64-bit
2015-04-12 22:37:44,182  INFO Gbl:61 OS: Linux; 3.13.0-49-generic; amd64
2015-04-12 22:37:44,182  INFO Gbl:64 CPU cores: 8
2015-04-12 22:37:44,182  INFO Gbl:65 max. Memory: 1749.5MB (1834483712B)
2015-04-12 22:37:44,182  INFO Gbl:103 MATSim-Build: r${buildNumber} (${timestamp})
2015-04-12 22:37:44,183  INFO AbstractController:101 Used Controler-Class: org.matsim.core.controler.Controler
2015-04-12 22:37:44,194  INFO MatsimXmlParser:145 starting to parse xml from file test/input/org/matsim/integration/signalsystems/SignalSystemsIntegrationTest/signalSystemsIntegrationConfig.xml ...
2015-04-12 22:37:44,194  INFO IOUtils:110 loading file from classpath: test/input/org/matsim/integration/signalsystems/SignalSystemsIntegrationTest/signalSystemsIntegrationConfig.xml
2015-04-12 22:37:44,195  INFO MatsimConfigReader:106 using config_v1-reader.
2015-04-12 22:37:44,196  INFO MatsimXmlParser:253 Trying to load file:///media/dgrether/data/work/matsim/matsim_workspace/contrib/signals/dtd/config_v1.dtd. In some cases (e.g. network interface up but no connection), this may take a bit.
2015-04-12 22:37:44,196  INFO MatsimXmlParser:268 java.io.FileNotFoundException: /media/dgrether/data/work/matsim/matsim_workspace/contrib/signals/dtd/config_v1.dtd (No such file or directory). May not be fatal, will try to load it locally.
2015-04-12 22:37:44,196  INFO MatsimXmlParser:290 Using local DTD from classpath: /dtd/config_v1.dtd
2015-04-12 22:37:44,196  INFO GlobalConfigGroup:103 setting number of threads to: 2
2015-04-12 22:37:44,197  WARN PlanCalcScoreConfigGroup$ReflectiveDelegate:956 Setting pathSizeLogitBeta different from zero is experimental.  KN, Sep'08
2015-04-12 22:37:44,201  INFO SnapshotWriterRegistrar:41 OTFVis snapshots will not be supported, as OTFVis is not part of the classpath.
2015-04-12 22:37:44,210  INFO SignalSystemsReader20:84 starting to validate ./test/input/org/matsim/integration/signalsystems/SignalSystemsIntegrationTest/testSignalSystems_v2.0.xml
2015-04-12 22:37:44,336  INFO MatsimJaxbXmlParser:92 Validating file against schema online at http://www.matsim.org/files/dtd/signalSystems_v2.0.xsd
2015-04-12 22:37:44,337  INFO SignalSystemsReader20:86 starting unmarshalling ./test/input/org/matsim/integration/signalsystems/SignalSystemsIntegrationTest/testSignalSystems_v2.0.xml
2015-04-12 22:37:44,337  INFO IOUtils:553 streaming file from classpath: ./test/input/org/matsim/integration/signalsystems/SignalSystemsIntegrationTest/testSignalSystems_v2.0.xml
2015-04-12 22:37:44,351  INFO SignalGroupsReader20:79 starting to validate ./test/input/org/matsim/integration/signalsystems/SignalSystemsIntegrationTest/testSignalGroups_v2.0.xml
2015-04-12 22:37:44,439  INFO MatsimJaxbXmlParser:92 Validating file against schema online at http://www.matsim.org/files/dtd/signalGroups_v2.0.xsd
2015-04-12 22:37:44,439  INFO SignalGroupsReader20:81 starting unmarshalling ./test/input/org/matsim/integration/signalsystems/SignalSystemsIntegrationTest/testSignalGroups_v2.0.xml
2015-04-12 22:37:44,440  INFO IOUtils:553 streaming file from classpath: ./test/input/org/matsim/integration/signalsystems/SignalSystemsIntegrationTest/testSignalGroups_v2.0.xml
2015-04-12 22:37:44,596  INFO MatsimJaxbXmlParser:92 Validating file against schema online at http://www.matsim.org/files/dtd/signalControl_v2.0.xsd
2015-04-12 22:37:44,597  INFO SignalControlReader20:85 starting unmarshalling ./test/input/org/matsim/integration/signalsystems/SignalSystemsIntegrationTest/testSignalControl_v2.0.xml
2015-04-12 22:37:44,597  INFO IOUtils:553 streaming file from classpath: ./test/input/org/matsim/integration/signalsystems/SignalSystemsIntegrationTest/testSignalControl_v2.0.xml
2015-04-12 22:37:44,601  INFO SignalControlReader20:89 unmarshalling complete
2015-04-12 22:37:44,614  INFO AmberTimesReader10:73 starting to validate ./test/input/org/matsim/integration/signalsystems/SignalSystemsIntegrationTest/testAmberTimes_v1.0.xml
2015-04-12 22:37:44,731  INFO MatsimJaxbXmlParser:92 Validating file against schema online at http://www.matsim.org/files/dtd/amberTimes_v1.0.xsd
2015-04-12 22:37:44,731  INFO AmberTimesReader10:75 starting unmarshalling ./test/input/org/matsim/integration/signalsystems/SignalSystemsIntegrationTest/testAmberTimes_v1.0.xml
2015-04-12 22:37:44,731  INFO IOUtils:553 streaming file from classpath: ./test/input/org/matsim/integration/signalsystems/SignalSystemsIntegrationTest/testAmberTimes_v1.0.xml
2015-04-12 22:37:44,739  INFO ScenarioLoaderImpl:136 loading scenario from base directory: /media/dgrether/data/work/matsim/matsim_workspace/contrib/signals/
2015-04-12 22:37:44,739  INFO ScenarioLoaderImpl:171 loading network from ./test/input/org/matsim/integration/signalsystems/SignalSystemsIntegrationTest/network.xml.gz
2015-04-12 22:37:44,739  INFO MatsimXmlParser:145 starting to parse xml from file ./test/input/org/matsim/integration/signalsystems/SignalSystemsIntegrationTest/network.xml.gz ...
2015-04-12 22:37:44,740  INFO IOUtils:107 loading file from classpath: ./test/input/org/matsim/integration/signalsystems/SignalSystemsIntegrationTest/network.xml.gz
2015-04-12 22:37:44,742  INFO MatsimNetworkReader:83 using network_v1-reader.
2015-04-12 22:37:44,742  INFO MatsimXmlParser:253 Trying to load http://www.matsim.org/files/dtd/network_v1.dtd. In some cases (e.g. network interface up but no connection), this may take a bit.
2015-04-12 22:37:44,771  INFO NetworkImpl:128  node # 1
2015-04-12 22:37:44,771  INFO NetworkImpl:128  node # 2
2015-04-12 22:37:44,772  INFO NetworkImpl:128  node # 4
2015-04-12 22:37:44,772  INFO NetworkImpl:128  node # 8
2015-04-12 22:37:44,772  INFO NetworkImpl:124  link # 1
2015-04-12 22:37:44,773  INFO NetworkImpl:124  link # 2
2015-04-12 22:37:44,773  INFO NetworkImpl:124  link # 4
2015-04-12 22:37:44,774  INFO NetworkImpl:124  link # 8
2015-04-12 22:37:44,774  INFO ScenarioLoaderImpl:201 no facilities file set in config, therefore not loading any facilities.  This is not a problem except if you are using facilities
2015-04-12 22:37:44,774  INFO ScenarioLoaderImpl:209 no facility-attributes file set in config, not loading any facility attributes
2015-04-12 22:37:44,775  INFO ScenarioLoaderImpl:222 loading population from ./test/input/org/matsim/integration/signalsystems/SignalSystemsIntegrationTest/plans.xml.gz
2015-04-12 22:37:44,775  INFO MatsimXmlParser:145 starting to parse xml from file ./test/input/org/matsim/integration/signalsystems/SignalSystemsIntegrationTest/plans.xml.gz ...
2015-04-12 22:37:44,775  INFO IOUtils:107 loading file from classpath: ./test/input/org/matsim/integration/signalsystems/SignalSystemsIntegrationTest/plans.xml.gz
2015-04-12 22:37:44,778  INFO MatsimPopulationReader:83 using plans_v4-reader.
2015-04-12 22:37:44,778  INFO MatsimXmlParser:253 Trying to load http://www.matsim.org/files/dtd/plans_v4.dtd. In some cases (e.g. network interface up but no connection), this may take a bit.
2015-04-12 22:37:44,834  INFO ParallelPopulationReaderMatsimV4:121 Start parallel population reading...
2015-04-12 22:37:44,834  INFO PopulationImpl:173  person # 1
2015-04-12 22:37:44,835  INFO PopulationImpl:173  person # 2
2015-04-12 22:37:44,835  INFO PopulationImpl:173  person # 4
2015-04-12 22:37:44,835  INFO PopulationImpl:173  person # 8
2015-04-12 22:37:44,836  INFO PopulationImpl:173  person # 16
2015-04-12 22:37:44,836  INFO PopulationImpl:173  person # 32
2015-04-12 22:37:44,837  INFO PopulationImpl:173  person # 64
2015-04-12 22:37:44,839  INFO PopulationImpl:173  person # 128
2015-04-12 22:37:44,843  INFO PopulationImpl:173  person # 256
2015-04-12 22:37:44,850  INFO PopulationImpl:173  person # 512
2015-04-12 22:37:44,863  INFO PopulationImpl:173  person # 1024
2015-04-12 22:37:44,887  INFO PopulationImpl:173  person # 2048
2015-04-12 22:37:44,921  INFO ParallelPopulationReaderMatsimV4:171 Finished parallel population reading...
2015-04-12 22:37:44,921  INFO PopulationImpl:173  person # 3664
2015-04-12 22:37:44,921  INFO ScenarioLoaderImpl:238 no person-attributes file set in config, not loading any person attributes
2015-04-12 22:37:44,984 DEBUG MatsimFileTypeGuesser:147 Detected public id: null
2015-04-12 22:37:44,985 DEBUG MatsimFileTypeGuesser:148 Detected system Id: http://www.matsim.org/files/dtd/laneDefinitions_v2.0.xsd
2015-04-12 22:37:44,985 DEBUG MatsimFileTypeGuesser:150 Detected root tag: laneDefinitions
2015-04-12 22:37:45,046 DEBUG MatsimFileTypeGuesser:147 Detected public id: null
2015-04-12 22:37:45,047 DEBUG MatsimFileTypeGuesser:148 Detected system Id: http://www.matsim.org/files/dtd/laneDefinitions_v2.0.xsd
2015-04-12 22:37:45,047 DEBUG MatsimFileTypeGuesser:150 Detected root tag: laneDefinitions
2015-04-12 22:37:45,047 DEBUG MatsimLaneDefinitionsReader:77 creating parser for system id: http://www.matsim.org/files/dtd/laneDefinitions_v2.0.xsd
2015-04-12 22:37:45,047  INFO MatsimLaneDefinitionsReader:88 Using LaneDefinitionReader20...
2015-04-12 22:37:45,047  INFO MatsimLaneDefinitionsReader:98 reading file ./test/output/org/matsim/integration/signalsystems/SignalSystemsIntegrationTest/testSignalSystems/testLaneDefinitions_v2.0.xml
2015-04-12 22:37:45,173  INFO MatsimJaxbXmlParser:92 Validating file against schema online at http://www.matsim.org/files/dtd/laneDefinitions_v2.0.xsd
2015-04-12 22:37:45,174  INFO LaneDefinitionsReader20:82 starting unmarshalling ./test/output/org/matsim/integration/signalsystems/SignalSystemsIntegrationTest/testSignalSystems/testLaneDefinitions_v2.0.xml
2015-04-12 22:37:45,184 ERROR ScenarioLoaderImpl:317 SignalsData is no longer loaded by this method. 
 If you do not use the default signals initialization code that is provided in the contrib, make sure you add the following line after you have loaded the scenario: 
   scenario.addScenarioElement(SignalsData.ELEMENT_NAME, new SignalsScenarioLoader(config.signalSystems()).loadSignalsData()); 
 
2015-04-12 22:37:45,238 DEBUG Injector:70 Key[type=com.google.inject.Injector, annotation=[none]] -> ProviderInstanceBinding[key=Key[type=com.google.inject.Injector, annotation=[none]], source=[unknown source], scope=Scopes.NO_SCOPE, provider=Provider<Injector>]
2015-04-12 22:37:45,238 DEBUG Injector:70 Key[type=java.util.logging.Logger, annotation=[none]] -> ProviderInstanceBinding[key=Key[type=java.util.logging.Logger, annotation=[none]], source=[unknown source], scope=Scopes.NO_SCOPE, provider=Provider<Logger>]
2015-04-12 22:37:45,238 DEBUG Injector:70 Key[type=java.util.Set<org.matsim.core.events.handler.EventHandler>, annotation=[none]] -> ProviderInstanceBinding[key=Key[type=java.util.Set<org.matsim.core.events.handler.EventHandler>, annotation=[none]], source=org.matsim.core.controler.AbstractModule$1.configure(AbstractModule.java:64), scope=Scopes.NO_SCOPE, provider=Multibinder<org.matsim.core.events.handler.EventHandler>]
2015-04-12 22:37:45,239 DEBUG Injector:70 Key[type=java.util.Set<org.matsim.core.controler.listener.ControlerListener>, annotation=[none]] -> ProviderInstanceBinding[key=Key[type=java.util.Set<org.matsim.core.controler.listener.ControlerListener>, annotation=[none]], source=org.matsim.core.controler.AbstractModule$1.configure(AbstractModule.java:64), scope=Scopes.NO_SCOPE, provider=Multibinder<org.matsim.core.controler.listener.ControlerListener>]
2015-04-12 22:37:45,239 DEBUG Injector:70 Key[type=java.util.Set<java.util.Map$Entry<java.lang.String, com.google.inject.Provider<org.matsim.core.replanning.PlanStrategy>>>, annotation=[none]] -> ProviderInstanceBinding[key=Key[type=java.util.Set<java.util.Map$Entry<java.lang.String, com.google.inject.Provider<org.matsim.core.replanning.PlanStrategy>>>, annotation=[none]], source=org.matsim.core.controler.AbstractModule$1.configure(AbstractModule.java:64), scope=Scopes.NO_SCOPE, provider=Multibinder<java.util.Map$Entry<java.lang.String, com.google.inject.Provider<org.matsim.core.replanning.PlanStrategy>>>]
2015-04-12 22:37:45,239 DEBUG Injector:70 Key[type=java.util.Map<java.lang.String, com.google.inject.Provider<org.matsim.core.replanning.PlanStrategy>>, annotation=[none]] -> ProviderInstanceBinding[key=Key[type=java.util.Map<java.lang.String, com.google.inject.Provider<org.matsim.core.replanning.PlanStrategy>>, annotation=[none]], source=org.matsim.core.controler.AbstractModule$1.configure(AbstractModule.java:64), scope=Scopes.NO_SCOPE, provider=com.google.inject.multibindings.MapBinder$RealMapBinder$1@86c6f4c]
2015-04-12 22:37:45,239 DEBUG Injector:70 Key[type=java.util.Map<java.lang.String, org.matsim.core.replanning.PlanStrategy>, annotation=[none]] -> ProviderInstanceBinding[key=Key[type=java.util.Map<java.lang.String, org.matsim.core.replanning.PlanStrategy>, annotation=[none]], source=org.matsim.core.controler.AbstractModule$1.configure(AbstractModule.java:64), scope=Scopes.NO_SCOPE, provider=com.google.inject.multibindings.MapBinder$RealMapBinder$2@48c87b2]
2015-04-12 22:37:45,239 DEBUG Injector:70 Key[type=java.util.Set<java.util.Map$Entry<java.lang.String, com.google.inject.Provider<org.matsim.core.replanning.selectors.GenericPlanSelector<org.matsim.api.core.v01.population.Plan, org.matsim.api.core.v01.population.Person>>>>, annotation=[none]] -> ProviderInstanceBinding[key=Key[type=java.util.Set<java.util.Map$Entry<java.lang.String, com.google.inject.Provider<org.matsim.core.replanning.selectors.GenericPlanSelector<org.matsim.api.core.v01.population.Plan, org.matsim.api.core.v01.population.Person>>>>, annotation=[none]], source=org.matsim.core.controler.AbstractModule$1.configure(AbstractModule.java:64), scope=Scopes.NO_SCOPE, provider=Multibinder<java.util.Map$Entry<java.lang.String, com.google.inject.Provider<org.matsim.core.replanning.selectors.GenericPlanSelector<org.matsim.api.core.v01.population.Plan, org.matsim.api.core.v01.population.Person>>>>]
2015-04-12 22:37:45,240 DEBUG Injector:70 Key[type=java.util.Map<java.lang.String, com.google.inject.Provider<org.matsim.core.replanning.selectors.GenericPlanSelector<org.matsim.api.core.v01.population.Plan, org.matsim.api.core.v01.population.Person>>>, annotation=[none]] -> ProviderInstanceBinding[key=Key[type=java.util.Map<java.lang.String, com.google.inject.Provider<org.matsim.core.replanning.selectors.GenericPlanSelector<org.matsim.api.core.v01.population.Plan, org.matsim.api.core.v01.population.Person>>>, annotation=[none]], source=org.matsim.core.controler.AbstractModule$1.configure(AbstractModule.java:64), scope=Scopes.NO_SCOPE, provider=com.google.inject.multibindings.MapBinder$RealMapBinder$1@49efa5a0]
2015-04-12 22:37:45,240 DEBUG Injector:70 Key[type=java.util.Map<java.lang.String, org.matsim.core.replanning.selectors.GenericPlanSelector<org.matsim.api.core.v01.population.Plan, org.matsim.api.core.v01.population.Person>>, annotation=[none]] -> ProviderInstanceBinding[key=Key[type=java.util.Map<java.lang.String, org.matsim.core.replanning.selectors.GenericPlanSelector<org.matsim.api.core.v01.population.Plan, org.matsim.api.core.v01.population.Person>>, annotation=[none]], source=org.matsim.core.controler.AbstractModule$1.configure(AbstractModule.java:64), scope=Scopes.NO_SCOPE, provider=com.google.inject.multibindings.MapBinder$RealMapBinder$2@1c5ab7d7]
2015-04-12 22:37:45,240 DEBUG Injector:70 Key[type=org.matsim.contrib.signals.controler.SignalsControllerListener, annotation=[none]] -> LinkedKeyBinding[key=Key[type=org.matsim.contrib.signals.controler.SignalsControllerListener, annotation=[none]], source=org.matsim.contrib.signals.controler.SignalsModule.install(SignalsModule.java:31), scope=Scopes.NO_SCOPE, target=Key[type=org.matsim.contrib.signals.controler.DefaultSignalsControllerListener, annotation=[none]]]
2015-04-12 22:37:45,240 DEBUG Injector:70 Key[type=org.matsim.core.controler.listener.ControlerListener, annotation=@com.google.inject.multibindings.Element(setName=,uniqueId=101)] -> LinkedKeyBinding[key=Key[type=org.matsim.core.controler.listener.ControlerListener, annotation=@com.google.inject.multibindings.Element(setName=,uniqueId=101)], source=org.matsim.contrib.signals.controler.SignalsModule.install(SignalsModule.java:32), scope=Scopes.NO_SCOPE, target=Key[type=org.matsim.contrib.signals.controler.SignalsControllerListener, annotation=[none]]]
2015-04-12 22:37:45,240 DEBUG Injector:70 Key[type=org.matsim.api.core.v01.network.Network, annotation=[none]] -> ProviderKeyBinding[key=Key[type=org.matsim.api.core.v01.network.Network, annotation=[none]], source=org.matsim.core.scenario.ScenarioElementsModule.install(ScenarioElementsModule.java:38), scope=Scopes.NO_SCOPE, provider=Key[type=org.matsim.core.scenario.ScenarioElementsModule$NetworkProvider, annotation=[none]]]
2015-04-12 22:37:45,240 DEBUG Injector:70 Key[type=org.matsim.api.core.v01.population.Population, annotation=[none]] -> ProviderKeyBinding[key=Key[type=org.matsim.api.core.v01.population.Population, annotation=[none]], source=org.matsim.core.scenario.ScenarioElementsModule.install(ScenarioElementsModule.java:39), scope=Scopes.NO_SCOPE, provider=Key[type=org.matsim.core.scenario.ScenarioElementsModule$PopulationProvider, annotation=[none]]]
2015-04-12 22:37:45,241 DEBUG Injector:70 Key[type=org.matsim.core.trafficmonitoring.TravelTimeCalculator, annotation=[none]] -> ProviderKeyBinding[key=Key[type=org.matsim.core.trafficmonitoring.TravelTimeCalculator, annotation=[none]], source=org.matsim.core.trafficmonitoring.TravelTimeCalculatorModule.install(TravelTimeCalculatorModule.java:51), scope=Scopes.SINGLETON, provider=Key[type=org.matsim.core.trafficmonitoring.TravelTimeCalculatorModule$TravelTimeCalculatorProvider, annotation=[none]]]
2015-04-12 22:37:45,241 DEBUG Injector:70 Key[type=org.matsim.core.events.handler.EventHandler, annotation=@com.google.inject.multibindings.Element(setName=,uniqueId=51)] -> LinkedKeyBinding[key=Key[type=org.matsim.core.events.handler.EventHandler, annotation=@com.google.inject.multibindings.Element(setName=,uniqueId=51)], source=org.matsim.core.trafficmonitoring.TravelTimeCalculatorModule.install(TravelTimeCalculatorModule.java:55), scope=Scopes.NO_SCOPE, target=Key[type=org.matsim.core.trafficmonitoring.TravelTimeCalculator, annotation=[none]]]
2015-04-12 22:37:45,241 DEBUG Injector:70 Key[type=org.matsim.core.router.util.TravelTime, annotation=[none]] -> ProviderKeyBinding[key=Key[type=org.matsim.core.router.util.TravelTime, annotation=[none]], source=org.matsim.core.trafficmonitoring.TravelTimeCalculatorModule.install(TravelTimeCalculatorModule.java:62), scope=Scopes.NO_SCOPE, provider=Key[type=org.matsim.core.trafficmonitoring.TravelTimeCalculatorModule$TravelTimeProvider, annotation=[none]]]
2015-04-12 22:37:45,241 DEBUG Injector:70 Key[type=org.matsim.core.router.util.LinkToLinkTravelTime, annotation=[none]] -> ProviderKeyBinding[key=Key[type=org.matsim.core.router.util.LinkToLinkTravelTime, annotation=[none]], source=org.matsim.core.trafficmonitoring.TravelTimeCalculatorModule.install(TravelTimeCalculatorModule.java:63), scope=Scopes.NO_SCOPE, provider=Key[type=org.matsim.core.trafficmonitoring.TravelTimeCalculatorModule$LinkToLinkTravelTimeProvider, annotation=[none]]]
2015-04-12 22:37:45,241 DEBUG Injector:70 Key[type=org.matsim.core.router.costcalculators.TravelDisutilityFactory, annotation=[none]] -> LinkedKeyBinding[key=Key[type=org.matsim.core.router.costcalculators.TravelDisutilityFactory, annotation=[none]], source=org.matsim.core.router.costcalculators.TravelDisutilityModule.install(TravelDisutilityModule.java:37), scope=Scopes.NO_SCOPE, target=Key[type=org.matsim.core.router.costcalculators.TravelTimeAndDistanceBasedTravelDisutilityFactory, annotation=[none]]]
2015-04-12 22:37:45,241 DEBUG Injector:70 Key[type=org.matsim.core.router.util.TravelDisutility, annotation=[none]] -> ProviderKeyBinding[key=Key[type=org.matsim.core.router.util.TravelDisutility, annotation=[none]], source=org.matsim.core.router.costcalculators.TravelDisutilityModule.install(TravelDisutilityModule.java:38), scope=Scopes.NO_SCOPE, provider=Key[type=org.matsim.core.router.costcalculators.TravelDisutilityModule$TravelDisutilityProvider, annotation=[none]]]
2015-04-12 22:37:45,242 DEBUG Injector:70 Key[type=org.matsim.core.scoring.ScoringFunctionFactory, annotation=[none]] -> ProviderInstanceBinding[key=Key[type=org.matsim.core.scoring.ScoringFunctionFactory, annotation=[none]], source=org.matsim.core.scoring.functions.CharyparNagelScoringFunctionModule.install(CharyparNagelScoringFunctionModule.java:37), scope=Scopes.NO_SCOPE, provider=org.matsim.core.controler.AbstractModule$5@3613ba6d]
2015-04-12 22:37:45,242 DEBUG Injector:70 Key[type=org.matsim.core.router.util.LeastCostPathCalculatorFactory, annotation=[none]] -> ProviderKeyBinding[key=Key[type=org.matsim.core.router.util.LeastCostPathCalculatorFactory, annotation=[none]], source=org.matsim.core.router.LeastCostPathCalculatorModule.install(LeastCostPathCalculatorModule.java:39), scope=Scopes.SINGLETON, provider=Key[type=org.matsim.core.router.LeastCostPathCalculatorModule$DefaultLeastCostPathCalculatorFactoryProvider, annotation=[none]]]
2015-04-12 22:37:45,242 DEBUG Injector:70 Key[type=org.matsim.pt.router.TransitRouterFactory, annotation=[none]] -> LinkedKeyBinding[key=Key[type=org.matsim.pt.router.TransitRouterFactory, annotation=[none]], source=org.matsim.pt.router.TransitRouterModule.install(TransitRouterModule.java:39), scope=Scopes.NO_SCOPE, target=Key[type=org.matsim.pt.router.TransitRouterModule$DummyTransitRouterFactory, annotation=[none]]]
2015-04-12 22:37:45,242 DEBUG Injector:70 Key[type=org.matsim.core.router.TripRouterFactory, annotation=[none]] -> LinkedKeyBinding[key=Key[type=org.matsim.core.router.TripRouterFactory, annotation=[none]], source=org.matsim.core.router.TripRouterFactoryModule.install(TripRouterFactoryModule.java:34), scope=Scopes.SINGLETON, target=Key[type=org.matsim.core.router.LinkToLinkTripRouterFactory, annotation=[none]]]
2015-04-12 22:37:45,242 DEBUG Injector:70 Key[type=org.matsim.core.router.TripRouter, annotation=[none]] -> ProviderKeyBinding[key=Key[type=org.matsim.core.router.TripRouter, annotation=[none]], source=org.matsim.core.router.TripRouterModule.install(TripRouterModule.java:37), scope=Scopes.NO_SCOPE, provider=Key[type=org.matsim.core.router.TripRouterModule$RealTripRouterProvider, annotation=[none]]]
2015-04-12 22:37:45,242 DEBUG Injector:70 Key[type=java.util.Map$Entry<java.lang.String, com.google.inject.Provider<org.matsim.core.replanning.selectors.GenericPlanSelector<org.matsim.api.core.v01.population.Plan, org.matsim.api.core.v01.population.Person>>>, annotation=@com.google.inject.multibindings.Element(setName=,uniqueId=53)] -> InstanceBinding[key=Key[type=java.util.Map$Entry<java.lang.String, com.google.inject.Provider<org.matsim.core.replanning.selectors.GenericPlanSelector<org.matsim.api.core.v01.population.Plan, org.matsim.api.core.v01.population.Person>>>, annotation=@com.google.inject.multibindings.Element(setName=,uniqueId=53)], source=org.matsim.core.replanning.DefaultPlanStrategiesModule.install(DefaultPlanStrategiesModule.java:46), instance=MapEntry(WorstPlanSelector, Provider<org.matsim.core.replanning.selectors.GenericPlanSelector<org.matsim.api.core.v01.population.Plan, org.matsim.api.core.v01.population.Person>>)]
2015-04-12 22:37:45,243 DEBUG Injector:70 Key[type=org.matsim.core.replanning.selectors.GenericPlanSelector<org.matsim.api.core.v01.population.Plan, org.matsim.api.core.v01.population.Person>, annotation=@com.google.inject.multibindings.Element(setName=,uniqueId=52)] -> LinkedKeyBinding[key=Key[type=org.matsim.core.replanning.selectors.GenericPlanSelector<org.matsim.api.core.v01.population.Plan, org.matsim.api.core.v01.population.Person>, annotation=@com.google.inject.multibindings.Element(setName=,uniqueId=52)], source=org.matsim.core.replanning.DefaultPlanStrategiesModule.install(DefaultPlanStrategiesModule.java:46), scope=Scopes.NO_SCOPE, target=Key[type=org.matsim.core.replanning.selectors.WorstPlanForRemovalSelector, annotation=[none]]]
2015-04-12 22:37:45,243 DEBUG Injector:70 Key[type=java.util.Map$Entry<java.lang.String, com.google.inject.Provider<org.matsim.core.replanning.selectors.GenericPlanSelector<org.matsim.api.core.v01.population.Plan, org.matsim.api.core.v01.population.Person>>>, annotation=@com.google.inject.multibindings.Element(setName=,uniqueId=55)] -> InstanceBinding[key=Key[type=java.util.Map$Entry<java.lang.String, com.google.inject.Provider<org.matsim.core.replanning.selectors.GenericPlanSelector<org.matsim.api.core.v01.population.Plan, org.matsim.api.core.v01.population.Person>>>, annotation=@com.google.inject.multibindings.Element(setName=,uniqueId=55)], source=org.matsim.core.replanning.DefaultPlanStrategiesModule.install(DefaultPlanStrategiesModule.java:47), instance=MapEntry(SelectRandom, Provider<org.matsim.core.replanning.selectors.GenericPlanSelector<org.matsim.api.core.v01.population.Plan, org.matsim.api.core.v01.population.Person>>)]
2015-04-12 22:37:45,243 DEBUG Injector:70 Key[type=org.matsim.core.replanning.selectors.GenericPlanSelector<org.matsim.api.core.v01.population.Plan, org.matsim.api.core.v01.population.Person>, annotation=@com.google.inject.multibindings.Element(setName=,uniqueId=54)] -> LinkedKeyBinding[key=Key[type=org.matsim.core.replanning.selectors.GenericPlanSelector<org.matsim.api.core.v01.population.Plan, org.matsim.api.core.v01.population.Person>, annotation=@com.google.inject.multibindings.Element(setName=,uniqueId=54)], source=org.matsim.core.replanning.DefaultPlanStrategiesModule.install(DefaultPlanStrategiesModule.java:47), scope=Scopes.NO_SCOPE, target=Key[type=org.matsim.core.replanning.selectors.RandomPlanSelector<org.matsim.api.core.v01.population.Plan, org.matsim.api.core.v01.population.Person>, annotation=[none]]]
2015-04-12 22:37:45,243 DEBUG Injector:70 Key[type=java.util.Map$Entry<java.lang.String, com.google.inject.Provider<org.matsim.core.replanning.selectors.GenericPlanSelector<org.matsim.api.core.v01.population.Plan, org.matsim.api.core.v01.population.Person>>>, annotation=@com.google.inject.multibindings.Element(setName=,uniqueId=57)] -> InstanceBinding[key=Key[type=java.util.Map$Entry<java.lang.String, com.google.inject.Provider<org.matsim.core.replanning.selectors.GenericPlanSelector<org.matsim.api.core.v01.population.Plan, org.matsim.api.core.v01.population.Person>>>, annotation=@com.google.inject.multibindings.Element(setName=,uniqueId=57)], source=org.matsim.core.replanning.DefaultPlanStrategiesModule.install(DefaultPlanStrategiesModule.java:48), instance=MapEntry(SelectExpBetaForRemoval, Provider<org.matsim.core.replanning.selectors.GenericPlanSelector<org.matsim.api.core.v01.population.Plan, org.matsim.api.core.v01.population.Person>>)]
2015-04-12 22:37:45,243 DEBUG Injector:70 Key[type=org.matsim.core.replanning.selectors.GenericPlanSelector<org.matsim.api.core.v01.population.Plan, org.matsim.api.core.v01.population.Person>, annotation=@com.google.inject.multibindings.Element(setName=,uniqueId=56)] -> ProviderKeyBinding[key=Key[type=org.matsim.core.replanning.selectors.GenericPlanSelector<org.matsim.api.core.v01.population.Plan, org.matsim.api.core.v01.population.Person>, annotation=@com.google.inject.multibindings.Element(setName=,uniqueId=56)], source=org.matsim.core.replanning.DefaultPlanStrategiesModule.install(DefaultPlanStrategiesModule.java:48), scope=Scopes.NO_SCOPE, provider=Key[type=org.matsim.core.replanning.DefaultPlanStrategiesModule$ExpBetaPlanSelectorForRemoval, annotation=[none]]]
2015-04-12 22:37:45,243 DEBUG Injector:70 Key[type=java.util.Map$Entry<java.lang.String, com.google.inject.Provider<org.matsim.core.replanning.selectors.GenericPlanSelector<org.matsim.api.core.v01.population.Plan, org.matsim.api.core.v01.population.Person>>>, annotation=@com.google.inject.multibindings.Element(setName=,uniqueId=59)] -> InstanceBinding[key=Key[type=java.util.Map$Entry<java.lang.String, com.google.inject.Provider<org.matsim.core.replanning.selectors.GenericPlanSelector<org.matsim.api.core.v01.population.Plan, org.matsim.api.core.v01.population.Person>>>, annotation=@com.google.inject.multibindings.Element(setName=,uniqueId=59)], source=org.matsim.core.replanning.DefaultPlanStrategiesModule.install(DefaultPlanStrategiesModule.java:49), instance=MapEntry(ChangeExpBetaForRemoval, Provider<org.matsim.core.replanning.selectors.GenericPlanSelector<org.matsim.api.core.v01.population.Plan, org.matsim.api.core.v01.population.Person>>)]
2015-04-12 22:37:45,243 DEBUG Injector:70 Key[type=org.matsim.core.replanning.selectors.GenericPlanSelector<org.matsim.api.core.v01.population.Plan, org.matsim.api.core.v01.population.Person>, annotation=@com.google.inject.multibindings.Element(setName=,uniqueId=58)] -> ProviderKeyBinding[key=Key[type=org.matsim.core.replanning.selectors.GenericPlanSelector<org.matsim.api.core.v01.population.Plan, org.matsim.api.core.v01.population.Person>, annotation=@com.google.inject.multibindings.Element(setName=,uniqueId=58)], source=org.matsim.core.replanning.DefaultPlanStrategiesModule.install(DefaultPlanStrategiesModule.java:49), scope=Scopes.NO_SCOPE, provider=Key[type=org.matsim.core.replanning.DefaultPlanStrategiesModule$ExpBetaPlanChangerForRemoval, annotation=[none]]]
2015-04-12 22:37:45,244 DEBUG Injector:70 Key[type=java.util.Map$Entry<java.lang.String, com.google.inject.Provider<org.matsim.core.replanning.selectors.GenericPlanSelector<org.matsim.api.core.v01.population.Plan, org.matsim.api.core.v01.population.Person>>>, annotation=@com.google.inject.multibindings.Element(setName=,uniqueId=61)] -> InstanceBinding[key=Key[type=java.util.Map$Entry<java.lang.String, com.google.inject.Provider<org.matsim.core.replanning.selectors.GenericPlanSelector<org.matsim.api.core.v01.population.Plan, org.matsim.api.core.v01.population.Person>>>, annotation=@com.google.inject.multibindings.Element(setName=,uniqueId=61)], source=org.matsim.core.replanning.DefaultPlanStrategiesModule.install(DefaultPlanStrategiesModule.java:50), instance=MapEntry(PathSizeLogitSelectorForRemoval, Provider<org.matsim.core.replanning.selectors.GenericPlanSelector<org.matsim.api.core.v01.population.Plan, org.matsim.api.core.v01.population.Person>>)]
2015-04-12 22:37:45,244 DEBUG Injector:70 Key[type=org.matsim.core.replanning.selectors.GenericPlanSelector<org.matsim.api.core.v01.population.Plan, org.matsim.api.core.v01.population.Person>, annotation=@com.google.inject.multibindings.Element(setName=,uniqueId=60)] -> ProviderKeyBinding[key=Key[type=org.matsim.core.replanning.selectors.GenericPlanSelector<org.matsim.api.core.v01.population.Plan, org.matsim.api.core.v01.population.Person>, annotation=@com.google.inject.multibindings.Element(setName=,uniqueId=60)], source=org.matsim.core.replanning.DefaultPlanStrategiesModule.install(DefaultPlanStrategiesModule.java:50), scope=Scopes.NO_SCOPE, provider=Key[type=org.matsim.core.replanning.DefaultPlanStrategiesModule$PathSizeLogitSelectorForRemoval, annotation=[none]]]
2015-04-12 22:37:45,244 DEBUG Injector:70 Key[type=java.util.Map$Entry<java.lang.String, com.google.inject.Provider<org.matsim.core.replanning.PlanStrategy>>, annotation=@com.google.inject.multibindings.Element(setName=,uniqueId=63)] -> InstanceBinding[key=Key[type=java.util.Map$Entry<java.lang.String, com.google.inject.Provider<org.matsim.core.replanning.PlanStrategy>>, annotation=@com.google.inject.multibindings.Element(setName=,uniqueId=63)], source=org.matsim.core.replanning.DefaultPlanStrategiesModule.install(DefaultPlanStrategiesModule.java:53), instance=MapEntry(KeepLastSelected, Provider<org.matsim.core.replanning.PlanStrategy>)]
2015-04-12 22:37:45,244 DEBUG Injector:70 Key[type=org.matsim.core.replanning.PlanStrategy, annotation=@com.google.inject.multibindings.Element(setName=,uniqueId=62)] -> ProviderKeyBinding[key=Key[type=org.matsim.core.replanning.PlanStrategy, annotation=@com.google.inject.multibindings.Element(setName=,uniqueId=62)], source=org.matsim.core.replanning.DefaultPlanStrategiesModule.install(DefaultPlanStrategiesModule.java:53), scope=Scopes.NO_SCOPE, provider=Key[type=org.matsim.core.replanning.modules.KeepLastSelectedPlanStrategyFactory, annotation=[none]]]
2015-04-12 22:37:45,244 DEBUG Injector:70 Key[type=java.util.Map$Entry<java.lang.String, com.google.inject.Provider<org.matsim.core.replanning.PlanStrategy>>, annotation=@com.google.inject.multibindings.Element(setName=,uniqueId=65)] -> InstanceBinding[key=Key[type=java.util.Map$Entry<java.lang.String, com.google.inject.Provider<org.matsim.core.replanning.PlanStrategy>>, annotation=@com.google.inject.multibindings.Element(setName=,uniqueId=65)], source=org.matsim.core.replanning.DefaultPlanStrategiesModule.install(DefaultPlanStrategiesModule.java:54), instance=MapEntry(BestScore, Provider<org.matsim.core.replanning.PlanStrategy>)]
2015-04-12 22:37:45,244 DEBUG Injector:70 Key[type=org.matsim.core.replanning.PlanStrategy, annotation=@com.google.inject.multibindings.Element(setName=,uniqueId=64)] -> ProviderKeyBinding[key=Key[type=org.matsim.core.replanning.PlanStrategy, annotation=@com.google.inject.multibindings.Element(setName=,uniqueId=64)], source=org.matsim.core.replanning.DefaultPlanStrategiesModule.install(DefaultPlanStrategiesModule.java:54), scope=Scopes.NO_SCOPE, provider=Key[type=org.matsim.core.replanning.modules.SelectBestPlanStrategyFactory, annotation=[none]]]
2015-04-12 22:37:45,245 DEBUG Injector:70 Key[type=java.util.Map$Entry<java.lang.String, com.google.inject.Provider<org.matsim.core.replanning.PlanStrategy>>, annotation=@com.google.inject.multibindings.Element(setName=,uniqueId=67)] -> InstanceBinding[key=Key[type=java.util.Map$Entry<java.lang.String, com.google.inject.Provider<org.matsim.core.replanning.PlanStrategy>>, annotation=@com.google.inject.multibindings.Element(setName=,uniqueId=67)], source=org.matsim.core.replanning.DefaultPlanStrategiesModule.install(DefaultPlanStrategiesModule.java:55), instance=MapEntry(SelectExpBeta, Provider<org.matsim.core.replanning.PlanStrategy>)]
2015-04-12 22:37:45,245 DEBUG Injector:70 Key[type=org.matsim.core.replanning.PlanStrategy, annotation=@com.google.inject.multibindings.Element(setName=,uniqueId=66)] -> ProviderKeyBinding[key=Key[type=org.matsim.core.replanning.PlanStrategy, annotation=@com.google.inject.multibindings.Element(setName=,uniqueId=66)], source=org.matsim.core.replanning.DefaultPlanStrategiesModule.install(DefaultPlanStrategiesModule.java:55), scope=Scopes.NO_SCOPE, provider=Key[type=org.matsim.core.replanning.modules.SelectExpBetaPlanStrategyFactory, annotation=[none]]]
2015-04-12 22:37:45,245 DEBUG Injector:70 Key[type=java.util.Map$Entry<java.lang.String, com.google.inject.Provider<org.matsim.core.replanning.PlanStrategy>>, annotation=@com.google.inject.multibindings.Element(setName=,uniqueId=69)] -> InstanceBinding[key=Key[type=java.util.Map$Entry<java.lang.String, com.google.inject.Provider<org.matsim.core.replanning.PlanStrategy>>, annotation=@com.google.inject.multibindings.Element(setName=,uniqueId=69)], source=org.matsim.core.replanning.DefaultPlanStrategiesModule.install(DefaultPlanStrategiesModule.java:56), instance=MapEntry(ChangeExpBeta, Provider<org.matsim.core.replanning.PlanStrategy>)]
2015-04-12 22:37:45,245 DEBUG Injector:70 Key[type=org.matsim.core.replanning.PlanStrategy, annotation=@com.google.inject.multibindings.Element(setName=,uniqueId=68)] -> ProviderKeyBinding[key=Key[type=org.matsim.core.replanning.PlanStrategy, annotation=@com.google.inject.multibindings.Element(setName=,uniqueId=68)], source=org.matsim.core.replanning.DefaultPlanStrategiesModule.install(DefaultPlanStrategiesModule.java:56), scope=Scopes.NO_SCOPE, provider=Key[type=org.matsim.core.replanning.modules.ChangeExpBetaPlanStrategyFactory, annotation=[none]]]
2015-04-12 22:37:45,245 DEBUG Injector:70 Key[type=java.util.Map$Entry<java.lang.String, com.google.inject.Provider<org.matsim.core.replanning.PlanStrategy>>, annotation=@com.google.inject.multibindings.Element(setName=,uniqueId=71)] -> InstanceBinding[key=Key[type=java.util.Map$Entry<java.lang.String, com.google.inject.Provider<org.matsim.core.replanning.PlanStrategy>>, annotation=@com.google.inject.multibindings.Element(setName=,uniqueId=71)], source=org.matsim.core.replanning.DefaultPlanStrategiesModule.install(DefaultPlanStrategiesModule.java:57), instance=MapEntry(SelectRandom, Provider<org.matsim.core.replanning.PlanStrategy>)]
2015-04-12 22:37:45,245 DEBUG Injector:70 Key[type=org.matsim.core.replanning.PlanStrategy, annotation=@com.google.inject.multibindings.Element(setName=,uniqueId=70)] -> ProviderKeyBinding[key=Key[type=org.matsim.core.replanning.PlanStrategy, annotation=@com.google.inject.multibindings.Element(setName=,uniqueId=70)], source=org.matsim.core.replanning.DefaultPlanStrategiesModule.install(DefaultPlanStrategiesModule.java:57), scope=Scopes.NO_SCOPE, provider=Key[type=org.matsim.core.replanning.modules.SelectRandomStrategyFactory, annotation=[none]]]
2015-04-12 22:37:45,245 DEBUG Injector:70 Key[type=java.util.Map$Entry<java.lang.String, com.google.inject.Provider<org.matsim.core.replanning.PlanStrategy>>, annotation=@com.google.inject.multibindings.Element(setName=,uniqueId=73)] -> InstanceBinding[key=Key[type=java.util.Map$Entry<java.lang.String, com.google.inject.Provider<org.matsim.core.replanning.PlanStrategy>>, annotation=@com.google.inject.multibindings.Element(setName=,uniqueId=73)], source=org.matsim.core.replanning.DefaultPlanStrategiesModule.install(DefaultPlanStrategiesModule.java:58), instance=MapEntry(SelectPathSizeLogit, Provider<org.matsim.core.replanning.PlanStrategy>)]
2015-04-12 22:37:45,246 DEBUG Injector:70 Key[type=org.matsim.core.replanning.PlanStrategy, annotation=@com.google.inject.multibindings.Element(setName=,uniqueId=72)] -> ProviderKeyBinding[key=Key[type=org.matsim.core.replanning.PlanStrategy, annotation=@com.google.inject.multibindings.Element(setName=,uniqueId=72)], source=org.matsim.core.replanning.DefaultPlanStrategiesModule.install(DefaultPlanStrategiesModule.java:58), scope=Scopes.NO_SCOPE, provider=Key[type=org.matsim.core.replanning.modules.SelectPathSizeLogitStrategyFactory, annotation=[none]]]
2015-04-12 22:37:45,246 DEBUG Injector:70 Key[type=java.util.Map$Entry<java.lang.String, com.google.inject.Provider<org.matsim.core.replanning.PlanStrategy>>, annotation=@com.google.inject.multibindings.Element(setName=,uniqueId=75)] -> InstanceBinding[key=Key[type=java.util.Map$Entry<java.lang.String, com.google.inject.Provider<org.matsim.core.replanning.PlanStrategy>>, annotation=@com.google.inject.multibindings.Element(setName=,uniqueId=75)], source=org.matsim.core.replanning.DefaultPlanStrategiesModule.install(DefaultPlanStrategiesModule.java:62), instance=MapEntry(ReRoute, Provider<org.matsim.core.replanning.PlanStrategy>)]
2015-04-12 22:37:45,246 DEBUG Injector:70 Key[type=org.matsim.core.replanning.PlanStrategy, annotation=@com.google.inject.multibindings.Element(setName=,uniqueId=74)] -> ProviderKeyBinding[key=Key[type=org.matsim.core.replanning.PlanStrategy, annotation=@com.google.inject.multibindings.Element(setName=,uniqueId=74)], source=org.matsim.core.replanning.DefaultPlanStrategiesModule.install(DefaultPlanStrategiesModule.java:62), scope=Scopes.NO_SCOPE, provider=Key[type=org.matsim.core.replanning.modules.ReRoutePlanStrategyFactory, annotation=[none]]]
2015-04-12 22:37:45,246 DEBUG Injector:70 Key[type=java.util.Map$Entry<java.lang.String, com.google.inject.Provider<org.matsim.core.replanning.PlanStrategy>>, annotation=@com.google.inject.multibindings.Element(setName=,uniqueId=77)] -> InstanceBinding[key=Key[type=java.util.Map$Entry<java.lang.String, com.google.inject.Provider<org.matsim.core.replanning.PlanStrategy>>, annotation=@com.google.inject.multibindings.Element(setName=,uniqueId=77)], source=org.matsim.core.replanning.DefaultPlanStrategiesModule.install(DefaultPlanStrategiesModule.java:63), instance=MapEntry(TimeAllocationMutator, Provider<org.matsim.core.replanning.PlanStrategy>)]
2015-04-12 22:37:45,246 DEBUG Injector:70 Key[type=org.matsim.core.replanning.PlanStrategy, annotation=@com.google.inject.multibindings.Element(setName=,uniqueId=76)] -> ProviderKeyBinding[key=Key[type=org.matsim.core.replanning.PlanStrategy, annotation=@com.google.inject.multibindings.Element(setName=,uniqueId=76)], source=org.matsim.core.replanning.DefaultPlanStrategiesModule.install(DefaultPlanStrategiesModule.java:63), scope=Scopes.NO_SCOPE, provider=Key[type=org.matsim.core.replanning.modules.TimeAllocationMutatorPlanStrategyFactory, annotation=[none]]]
2015-04-12 22:37:45,246 DEBUG Injector:70 Key[type=java.util.Map$Entry<java.lang.String, com.google.inject.Provider<org.matsim.core.replanning.PlanStrategy>>, annotation=@com.google.inject.multibindings.Element(setName=,uniqueId=79)] -> InstanceBinding[key=Key[type=java.util.Map$Entry<java.lang.String, com.google.inject.Provider<org.matsim.core.replanning.PlanStrategy>>, annotation=@com.google.inject.multibindings.Element(setName=,uniqueId=79)], source=org.matsim.core.replanning.DefaultPlanStrategiesModule.install(DefaultPlanStrategiesModule.java:64), instance=MapEntry(TimeAllocationMutator_ReRoute, Provider<org.matsim.core.replanning.PlanStrategy>)]
2015-04-12 22:37:45,246 DEBUG Injector:70 Key[type=org.matsim.core.replanning.PlanStrategy, annotation=@com.google.inject.multibindings.Element(setName=,uniqueId=78)] -> ProviderKeyBinding[key=Key[type=org.matsim.core.replanning.PlanStrategy, annotation=@com.google.inject.multibindings.Element(setName=,uniqueId=78)], source=org.matsim.core.replanning.DefaultPlanStrategiesModule.install(DefaultPlanStrategiesModule.java:64), scope=Scopes.NO_SCOPE, provider=Key[type=org.matsim.core.replanning.modules.TimeAllocationMutatorReRoutePlanStrategyFactory, annotation=[none]]]
2015-04-12 22:37:45,247 DEBUG Injector:70 Key[type=java.util.Map$Entry<java.lang.String, com.google.inject.Provider<org.matsim.core.replanning.PlanStrategy>>, annotation=@com.google.inject.multibindings.Element(setName=,uniqueId=81)] -> InstanceBinding[key=Key[type=java.util.Map$Entry<java.lang.String, com.google.inject.Provider<org.matsim.core.replanning.PlanStrategy>>, annotation=@com.google.inject.multibindings.Element(setName=,uniqueId=81)], source=org.matsim.core.replanning.DefaultPlanStrategiesModule.install(DefaultPlanStrategiesModule.java:65), instance=MapEntry(ChangeLegMode, Provider<org.matsim.core.replanning.PlanStrategy>)]
2015-04-12 22:37:45,247 DEBUG Injector:70 Key[type=org.matsim.core.replanning.PlanStrategy, annotation=@com.google.inject.multibindings.Element(setName=,uniqueId=80)] -> ProviderKeyBinding[key=Key[type=org.matsim.core.replanning.PlanStrategy, annotation=@com.google.inject.multibindings.Element(setName=,uniqueId=80)], source=org.matsim.core.replanning.DefaultPlanStrategiesModule.install(DefaultPlanStrategiesModule.java:65), scope=Scopes.NO_SCOPE, provider=Key[type=org.matsim.core.replanning.modules.ChangeLegModeStrategyFactory, annotation=[none]]]
2015-04-12 22:37:45,247 DEBUG Injector:70 Key[type=java.util.Map$Entry<java.lang.String, com.google.inject.Provider<org.matsim.core.replanning.PlanStrategy>>, annotation=@com.google.inject.multibindings.Element(setName=,uniqueId=83)] -> InstanceBinding[key=Key[type=java.util.Map$Entry<java.lang.String, com.google.inject.Provider<org.matsim.core.replanning.PlanStrategy>>, annotation=@com.google.inject.multibindings.Element(setName=,uniqueId=83)], source=org.matsim.core.replanning.DefaultPlanStrategiesModule.install(DefaultPlanStrategiesModule.java:66), instance=MapEntry(ChangeSingleLegMode, Provider<org.matsim.core.replanning.PlanStrategy>)]
2015-04-12 22:37:45,247 DEBUG Injector:70 Key[type=org.matsim.core.replanning.PlanStrategy, annotation=@com.google.inject.multibindings.Element(setName=,uniqueId=82)] -> ProviderKeyBinding[key=Key[type=org.matsim.core.replanning.PlanStrategy, annotation=@com.google.inject.multibindings.Element(setName=,uniqueId=82)], source=org.matsim.core.replanning.DefaultPlanStrategiesModule.install(DefaultPlanStrategiesModule.java:66), scope=Scopes.NO_SCOPE, provider=Key[type=org.matsim.core.replanning.modules.ChangeSingleLegModeStrategyFactory, annotation=[none]]]
2015-04-12 22:37:45,247 DEBUG Injector:70 Key[type=java.util.Map$Entry<java.lang.String, com.google.inject.Provider<org.matsim.core.replanning.PlanStrategy>>, annotation=@com.google.inject.multibindings.Element(setName=,uniqueId=85)] -> InstanceBinding[key=Key[type=java.util.Map$Entry<java.lang.String, com.google.inject.Provider<org.matsim.core.replanning.PlanStrategy>>, annotation=@com.google.inject.multibindings.Element(setName=,uniqueId=85)], source=org.matsim.core.replanning.DefaultPlanStrategiesModule.install(DefaultPlanStrategiesModule.java:67), instance=MapEntry(ChangeSingleTripMode, Provider<org.matsim.core.replanning.PlanStrategy>)]
2015-04-12 22:37:45,247 DEBUG Injector:70 Key[type=org.matsim.core.replanning.PlanStrategy, annotation=@com.google.inject.multibindings.Element(setName=,uniqueId=84)] -> ProviderKeyBinding[key=Key[type=org.matsim.core.replanning.PlanStrategy, annotation=@com.google.inject.multibindings.Element(setName=,uniqueId=84)], source=org.matsim.core.replanning.DefaultPlanStrategiesModule.install(DefaultPlanStrategiesModule.java:67), scope=Scopes.NO_SCOPE, provider=Key[type=org.matsim.core.replanning.modules.ChangeSingleTripModeStrategyFactory, annotation=[none]]]
2015-04-12 22:37:45,247 DEBUG Injector:70 Key[type=java.util.Map$Entry<java.lang.String, com.google.inject.Provider<org.matsim.core.replanning.PlanStrategy>>, annotation=@com.google.inject.multibindings.Element(setName=,uniqueId=87)] -> InstanceBinding[key=Key[type=java.util.Map$Entry<java.lang.String, com.google.inject.Provider<org.matsim.core.replanning.PlanStrategy>>, annotation=@com.google.inject.multibindings.Element(setName=,uniqueId=87)], source=org.matsim.core.replanning.DefaultPlanStrategiesModule.install(DefaultPlanStrategiesModule.java:68), instance=MapEntry(SubtourModeChoice, Provider<org.matsim.core.replanning.PlanStrategy>)]
2015-04-12 22:37:45,248 DEBUG Injector:70 Key[type=org.matsim.core.replanning.PlanStrategy, annotation=@com.google.inject.multibindings.Element(setName=,uniqueId=86)] -> ProviderKeyBinding[key=Key[type=org.matsim.core.replanning.PlanStrategy, annotation=@com.google.inject.multibindings.Element(setName=,uniqueId=86)], source=org.matsim.core.replanning.DefaultPlanStrategiesModule.install(DefaultPlanStrategiesModule.java:68), scope=Scopes.NO_SCOPE, provider=Key[type=org.matsim.core.replanning.modules.SubtourModeChoiceStrategyFactory, annotation=[none]]]
2015-04-12 22:37:45,248 DEBUG Injector:70 Key[type=java.util.Map$Entry<java.lang.String, com.google.inject.Provider<org.matsim.core.replanning.PlanStrategy>>, annotation=@com.google.inject.multibindings.Element(setName=,uniqueId=89)] -> InstanceBinding[key=Key[type=java.util.Map$Entry<java.lang.String, com.google.inject.Provider<org.matsim.core.replanning.PlanStrategy>>, annotation=@com.google.inject.multibindings.Element(setName=,uniqueId=89)], source=org.matsim.core.replanning.DefaultPlanStrategiesModule.install(DefaultPlanStrategiesModule.java:69), instance=MapEntry(ChangeTripMode, Provider<org.matsim.core.replanning.PlanStrategy>)]
2015-04-12 22:37:45,248 DEBUG Injector:70 Key[type=org.matsim.core.replanning.PlanStrategy, annotation=@com.google.inject.multibindings.Element(setName=,uniqueId=88)] -> ProviderKeyBinding[key=Key[type=org.matsim.core.replanning.PlanStrategy, annotation=@com.google.inject.multibindings.Element(setName=,uniqueId=88)], source=org.matsim.core.replanning.DefaultPlanStrategiesModule.install(DefaultPlanStrategiesModule.java:69), scope=Scopes.NO_SCOPE, provider=Key[type=org.matsim.core.replanning.modules.ChangeTripModeStrategyFactory, annotation=[none]]]
2015-04-12 22:37:45,248 DEBUG Injector:70 Key[type=java.util.Map$Entry<java.lang.String, com.google.inject.Provider<org.matsim.core.replanning.PlanStrategy>>, annotation=@com.google.inject.multibindings.Element(setName=,uniqueId=91)] -> InstanceBinding[key=Key[type=java.util.Map$Entry<java.lang.String, com.google.inject.Provider<org.matsim.core.replanning.PlanStrategy>>, annotation=@com.google.inject.multibindings.Element(setName=,uniqueId=91)], source=org.matsim.core.replanning.DefaultPlanStrategiesModule.install(DefaultPlanStrategiesModule.java:70), instance=MapEntry(TripSubtourModeChoice, Provider<org.matsim.core.replanning.PlanStrategy>)]
2015-04-12 22:37:45,248 DEBUG Injector:70 Key[type=org.matsim.core.replanning.PlanStrategy, annotation=@com.google.inject.multibindings.Element(setName=,uniqueId=90)] -> ProviderKeyBinding[key=Key[type=org.matsim.core.replanning.PlanStrategy, annotation=@com.google.inject.multibindings.Element(setName=,uniqueId=90)], source=org.matsim.core.replanning.DefaultPlanStrategiesModule.install(DefaultPlanStrategiesModule.java:70), scope=Scopes.NO_SCOPE, provider=Key[type=org.matsim.core.replanning.modules.TripSubtourModeChoiceStrategyFactory, annotation=[none]]]
2015-04-12 22:37:45,248 DEBUG Injector:70 Key[type=org.matsim.core.replanning.StrategyManager, annotation=[none]] -> ProviderKeyBinding[key=Key[type=org.matsim.core.replanning.StrategyManager, annotation=[none]], source=org.matsim.core.replanning.StrategyManagerModule.install(StrategyManagerModule.java:39), scope=Scopes.SINGLETON, provider=Key[type=org.matsim.core.replanning.StrategyManagerModule$StrategyManagerProvider, annotation=[none]]]
2015-04-12 22:37:45,248 DEBUG Injector:70 Key[type=org.matsim.core.replanning.ReplanningContext, annotation=[none]] -> LinkedKeyBinding[key=Key[type=org.matsim.core.replanning.ReplanningContext, annotation=[none]], source=org.matsim.core.replanning.StrategyManagerModule.install(StrategyManagerModule.java:40), scope=Scopes.NO_SCOPE, target=Key[type=org.matsim.core.replanning.ReplanningContextImpl, annotation=[none]]]
2015-04-12 22:37:45,249 DEBUG Injector:70 Key[type=org.matsim.analysis.CalcLinkStats, annotation=[none]] -> ProviderKeyBinding[key=Key[type=org.matsim.analysis.CalcLinkStats, annotation=[none]], source=org.matsim.core.controler.corelisteners.LinkStatsModule.install(LinkStatsModule.java:43), scope=Scopes.SINGLETON, provider=Key[type=org.matsim.core.controler.corelisteners.LinkStatsModule$CalcLinkStatsProvider, annotation=[none]]]
2015-04-12 22:37:45,249 DEBUG Injector:70 Key[type=org.matsim.core.controler.listener.ControlerListener, annotation=@com.google.inject.multibindings.Element(setName=,uniqueId=92)] -> LinkedKeyBinding[key=Key[type=org.matsim.core.controler.listener.ControlerListener, annotation=@com.google.inject.multibindings.Element(setName=,uniqueId=92)], source=org.matsim.core.controler.corelisteners.LinkStatsModule.install(LinkStatsModule.java:44), scope=Scopes.NO_SCOPE, target=Key[type=org.matsim.core.controler.corelisteners.LinkStatsControlerListener, annotation=[none]]]
2015-04-12 22:37:45,249 DEBUG Injector:70 Key[type=org.matsim.analysis.VolumesAnalyzer, annotation=[none]] -> ProviderKeyBinding[key=Key[type=org.matsim.analysis.VolumesAnalyzer, annotation=[none]], source=org.matsim.analysis.VolumesAnalyzerModule.install(VolumesAnalyzerModule.java:34), scope=Scopes.SINGLETON, provider=Key[type=org.matsim.analysis.VolumesAnalyzerModule$VolumesAnalyzerProvider, annotation=[none]]]
2015-04-12 22:37:45,249 DEBUG Injector:70 Key[type=org.matsim.core.events.handler.EventHandler, annotation=@com.google.inject.multibindings.Element(setName=,uniqueId=93)] -> LinkedKeyBinding[key=Key[type=org.matsim.core.events.handler.EventHandler, annotation=@com.google.inject.multibindings.Element(setName=,uniqueId=93)], source=org.matsim.analysis.VolumesAnalyzerModule.install(VolumesAnalyzerModule.java:35), scope=Scopes.NO_SCOPE, target=Key[type=org.matsim.analysis.VolumesAnalyzer, annotation=[none]]]
2015-04-12 22:37:45,249 DEBUG Injector:70 Key[type=org.matsim.core.events.handler.EventHandler, annotation=@com.google.inject.multibindings.Element(setName=,uniqueId=94)] -> InstanceBinding[key=Key[type=org.matsim.core.events.handler.EventHandler, annotation=@com.google.inject.multibindings.Element(setName=,uniqueId=94)], source=org.matsim.core.controler.corelisteners.LegHistogramModule.install(LegHistogramModule.java:32), instance=org.matsim.analysis.LegHistogram@293697a3]
2015-04-12 22:37:45,249 DEBUG Injector:70 Key[type=org.matsim.analysis.LegHistogram, annotation=[none]] -> InstanceBinding[key=Key[type=org.matsim.analysis.LegHistogram, annotation=[none]], source=org.matsim.core.controler.corelisteners.LegHistogramModule.install(LegHistogramModule.java:33), instance=org.matsim.analysis.LegHistogram@293697a3]
2015-04-12 22:37:45,249 DEBUG Injector:70 Key[type=org.matsim.core.controler.listener.ControlerListener, annotation=@com.google.inject.multibindings.Element(setName=,uniqueId=95)] -> LinkedKeyBinding[key=Key[type=org.matsim.core.controler.listener.ControlerListener, annotation=@com.google.inject.multibindings.Element(setName=,uniqueId=95)], source=org.matsim.core.controler.corelisteners.LegHistogramModule.install(LegHistogramModule.java:34), scope=Scopes.NO_SCOPE, target=Key[type=org.matsim.core.controler.corelisteners.LegHistogramListener, annotation=[none]]]
2015-04-12 22:37:45,250 DEBUG Injector:70 Key[type=org.matsim.core.events.handler.EventHandler, annotation=@com.google.inject.multibindings.Element(setName=,uniqueId=96)] -> LinkedKeyBinding[key=Key[type=org.matsim.core.events.handler.EventHandler, annotation=@com.google.inject.multibindings.Element(setName=,uniqueId=96)], source=org.matsim.analysis.LegTimesModule.install(LegTimesModule.java:31), scope=Scopes.NO_SCOPE, target=Key[type=org.matsim.analysis.CalcLegTimes, annotation=[none]]]
2015-04-12 22:37:45,250 DEBUG Injector:70 Key[type=org.matsim.core.controler.listener.ControlerListener, annotation=@com.google.inject.multibindings.Element(setName=,uniqueId=97)] -> LinkedKeyBinding[key=Key[type=org.matsim.core.controler.listener.ControlerListener, annotation=@com.google.inject.multibindings.Element(setName=,uniqueId=97)], source=org.matsim.analysis.LegTimesModule.install(LegTimesModule.java:32), scope=Scopes.NO_SCOPE, target=Key[type=org.matsim.analysis.LegTimesControlerListener, annotation=[none]]]
2015-04-12 22:37:45,250 DEBUG Injector:70 Key[type=org.matsim.core.controler.listener.ControlerListener, annotation=@com.google.inject.multibindings.Element(setName=,uniqueId=98)] -> LinkedKeyBinding[key=Key[type=org.matsim.core.controler.listener.ControlerListener, annotation=@com.google.inject.multibindings.Element(setName=,uniqueId=98)], source=org.matsim.analysis.ScoreStatsModule.install(ScoreStatsModule.java:31), scope=Scopes.NO_SCOPE, target=Key[type=org.matsim.analysis.ScoreStatsControlerListener, annotation=[none]]]
2015-04-12 22:37:45,250 DEBUG Injector:70 Key[type=org.matsim.analysis.ScoreStats, annotation=[none]] -> LinkedKeyBinding[key=Key[type=org.matsim.analysis.ScoreStats, annotation=[none]], source=org.matsim.analysis.ScoreStatsModule.install(ScoreStatsModule.java:32), scope=Scopes.NO_SCOPE, target=Key[type=org.matsim.analysis.ScoreStatsControlerListener, annotation=[none]]]
2015-04-12 22:37:45,250 DEBUG Injector:70 Key[type=org.matsim.core.controler.listener.ControlerListener, annotation=@com.google.inject.multibindings.Element(setName=,uniqueId=99)] -> LinkedKeyBinding[key=Key[type=org.matsim.core.controler.listener.ControlerListener, annotation=@com.google.inject.multibindings.Element(setName=,uniqueId=99)], source=org.matsim.counts.CountsModule.install(CountsModule.java:30), scope=Scopes.NO_SCOPE, target=Key[type=org.matsim.counts.CountsControlerListener, annotation=[none]]]
2015-04-12 22:37:45,250 DEBUG Injector:70 Key[type=org.matsim.core.controler.listener.ControlerListener, annotation=@com.google.inject.multibindings.Element(setName=,uniqueId=100)] -> LinkedKeyBinding[key=Key[type=org.matsim.core.controler.listener.ControlerListener, annotation=@com.google.inject.multibindings.Element(setName=,uniqueId=100)], source=org.matsim.population.VspPlansCleanerModule.install(VspPlansCleanerModule.java:34), scope=Scopes.NO_SCOPE, target=Key[type=org.matsim.population.VspPlansCleaner, annotation=[none]]]
2015-04-12 22:37:45,250 DEBUG Injector:70 Key[type=org.matsim.core.controler.OutputDirectoryHierarchy, annotation=[none]] -> InstanceBinding[key=Key[type=org.matsim.core.controler.OutputDirectoryHierarchy, annotation=[none]], source=org.matsim.core.controler.Controler$2.install(Controler.java:310), instance=org.matsim.core.controler.OutputDirectoryHierarchy@4fbbb855]
2015-04-12 22:37:45,251 DEBUG Injector:70 Key[type=org.matsim.analysis.IterationStopWatch, annotation=[none]] -> InstanceBinding[key=Key[type=org.matsim.analysis.IterationStopWatch, annotation=[none]], source=org.matsim.core.controler.Controler$2.install(Controler.java:311), instance=org.matsim.analysis.IterationStopWatch@906b39f]
2015-04-12 22:37:45,251 DEBUG Injector:70 Key[type=org.matsim.api.core.v01.Scenario, annotation=[none]] -> InstanceBinding[key=Key[type=org.matsim.api.core.v01.Scenario, annotation=[none]], source=org.matsim.core.controler.Controler$2.install(Controler.java:312), instance=org.matsim.core.scenario.ScenarioImpl@1c1b107f]
2015-04-12 22:37:45,251 DEBUG Injector:70 Key[type=org.matsim.core.api.experimental.events.EventsManager, annotation=[none]] -> InstanceBinding[key=Key[type=org.matsim.core.api.experimental.events.EventsManager, annotation=[none]], source=org.matsim.core.controler.Controler$2.install(Controler.java:313), instance=org.matsim.core.events.SimStepParallelEventsManagerImpl@5513b9cf]
2015-04-12 22:37:45,251 DEBUG Injector:70 Key[type=java.lang.Integer, annotation=@com.google.inject.name.Named(value=iteration)] -> ProviderInstanceBinding[key=Key[type=java.lang.Integer, annotation=@com.google.inject.name.Named(value=iteration)], source=org.matsim.core.controler.Controler$2.install(Controler.java:314), scope=Scopes.NO_SCOPE, provider=org.matsim.core.controler.Controler$2$1@5de5ad40]
2015-04-12 22:37:45,251 DEBUG Injector:70 Key[type=org.matsim.analysis.CalcLegTimes, annotation=[none]] -> ConstructorBinding[key=Key[type=org.matsim.analysis.CalcLegTimes, annotation=[none]], source=org.matsim.analysis.LegTimesModule.install(LegTimesModule.java:30), scope=Scopes.SINGLETON]
2015-04-12 22:37:45,251 DEBUG Injector:70 Key[type=org.matsim.analysis.ScoreStatsControlerListener, annotation=[none]] -> ConstructorBinding[key=Key[type=org.matsim.analysis.ScoreStatsControlerListener, annotation=[none]], source=org.matsim.analysis.ScoreStatsModule.install(ScoreStatsModule.java:30), scope=Scopes.SINGLETON]
2015-04-12 22:37:45,252  INFO ScenarioImpl:272 no transit schedule, and transit not activated from config. You must first call the create method of ScenarioImpl.
2015-04-12 22:37:45,252  INFO StrategyManagerConfigLoader:61 global innovation switch off after iteration: 2147483647
2015-04-12 22:37:45,253  INFO GenericStrategyManager:298 added change request:  iteration=-2147483648 newWeight=0.0 strategy=RandomPlanSelector_TimeAllocationMutator
2015-04-12 22:37:45,253  INFO GenericStrategyManager:298 added change request:  iteration=-2147483648 newWeight=0.0 strategy=RandomPlanSelector_ReRoute
2015-04-12 22:37:45,253  INFO GenericStrategyManager:330 setting PlanSelectorForRemoval to class org.matsim.core.replanning.selectors.WorstPlanForRemovalSelector
2015-04-12 22:37:45,253  INFO EventsManagerImpl:144 adding Event-Handler: org.matsim.core.trafficmonitoring.TravelTimeCalculator
2015-04-12 22:37:45,254  INFO EventsManagerImpl:148   org.matsim.api.core.v01.events.handler.LinkEnterEventHandler
2015-04-12 22:37:45,254  INFO EventsManagerImpl:207     > org.matsim.api.core.v01.events.LinkEnterEvent
2015-04-12 22:37:45,254  INFO EventsManagerImpl:148   org.matsim.api.core.v01.events.handler.LinkLeaveEventHandler
2015-04-12 22:37:45,254  INFO EventsManagerImpl:207     > org.matsim.api.core.v01.events.LinkLeaveEvent
2015-04-12 22:37:45,254  INFO EventsManagerImpl:148   org.matsim.api.core.v01.events.handler.PersonDepartureEventHandler
2015-04-12 22:37:45,254  INFO EventsManagerImpl:207     > org.matsim.api.core.v01.events.PersonDepartureEvent
2015-04-12 22:37:45,254  INFO EventsManagerImpl:148   org.matsim.api.core.v01.events.handler.PersonArrivalEventHandler
2015-04-12 22:37:45,254  INFO EventsManagerImpl:207     > org.matsim.api.core.v01.events.PersonArrivalEvent
2015-04-12 22:37:45,254  INFO EventsManagerImpl:148   org.matsim.core.api.experimental.events.handler.VehicleArrivesAtFacilityEventHandler
2015-04-12 22:37:45,254  INFO EventsManagerImpl:207     > org.matsim.core.api.experimental.events.VehicleArrivesAtFacilityEvent
2015-04-12 22:37:45,255  INFO EventsManagerImpl:148   org.matsim.api.core.v01.events.handler.TransitDriverStartsEventHandler
2015-04-12 22:37:45,255  INFO EventsManagerImpl:207     > org.matsim.api.core.v01.events.TransitDriverStartsEvent
2015-04-12 22:37:45,255  INFO EventsManagerImpl:148   org.matsim.api.core.v01.events.handler.PersonStuckEventHandler
2015-04-12 22:37:45,255  INFO EventsManagerImpl:207     > org.matsim.api.core.v01.events.PersonStuckEvent
2015-04-12 22:37:45,255  INFO EventsManagerImpl:156 
2015-04-12 22:37:45,255  INFO EventsManagerImpl:144 adding Event-Handler: org.matsim.core.trafficmonitoring.TravelTimeCalculator
2015-04-12 22:37:45,255  INFO EventsManagerImpl:148   org.matsim.api.core.v01.events.handler.LinkEnterEventHandler
2015-04-12 22:37:45,255  INFO EventsManagerImpl:207     > org.matsim.api.core.v01.events.LinkEnterEvent
2015-04-12 22:37:45,255  INFO EventsManagerImpl:148   org.matsim.api.core.v01.events.handler.LinkLeaveEventHandler
2015-04-12 22:37:45,255  INFO EventsManagerImpl:207     > org.matsim.api.core.v01.events.LinkLeaveEvent
2015-04-12 22:37:45,255  INFO EventsManagerImpl:148   org.matsim.api.core.v01.events.handler.PersonDepartureEventHandler
2015-04-12 22:37:45,256  INFO EventsManagerImpl:207     > org.matsim.api.core.v01.events.PersonDepartureEvent
2015-04-12 22:37:45,256  INFO EventsManagerImpl:148   org.matsim.api.core.v01.events.handler.PersonArrivalEventHandler
2015-04-12 22:37:45,256  INFO EventsManagerImpl:207     > org.matsim.api.core.v01.events.PersonArrivalEvent
2015-04-12 22:37:45,256  INFO EventsManagerImpl:148   org.matsim.core.api.experimental.events.handler.VehicleArrivesAtFacilityEventHandler
2015-04-12 22:37:45,256  INFO EventsManagerImpl:207     > org.matsim.core.api.experimental.events.VehicleArrivesAtFacilityEvent
2015-04-12 22:37:45,256  INFO EventsManagerImpl:148   org.matsim.api.core.v01.events.handler.TransitDriverStartsEventHandler
2015-04-12 22:37:45,256  INFO EventsManagerImpl:207     > org.matsim.api.core.v01.events.TransitDriverStartsEvent
2015-04-12 22:37:45,256  INFO EventsManagerImpl:148   org.matsim.api.core.v01.events.handler.PersonStuckEventHandler
2015-04-12 22:37:45,256  INFO EventsManagerImpl:207     > org.matsim.api.core.v01.events.PersonStuckEvent
2015-04-12 22:37:45,256  INFO EventsManagerImpl:156 
2015-04-12 22:37:45,256  INFO EventsManagerImpl:144 adding Event-Handler: org.matsim.analysis.VolumesAnalyzer
2015-04-12 22:37:45,257  INFO EventsManagerImpl:148   org.matsim.api.core.v01.events.handler.LinkLeaveEventHandler
2015-04-12 22:37:45,257  INFO EventsManagerImpl:207     > org.matsim.api.core.v01.events.LinkLeaveEvent
2015-04-12 22:37:45,257  INFO EventsManagerImpl:148   org.matsim.api.core.v01.events.handler.PersonDepartureEventHandler
2015-04-12 22:37:45,257  INFO EventsManagerImpl:207     > org.matsim.api.core.v01.events.PersonDepartureEvent
2015-04-12 22:37:45,257  INFO EventsManagerImpl:156 
2015-04-12 22:37:45,257  INFO EventsManagerImpl:144 adding Event-Handler: org.matsim.analysis.VolumesAnalyzer
2015-04-12 22:37:45,257  INFO EventsManagerImpl:148   org.matsim.api.core.v01.events.handler.LinkLeaveEventHandler
2015-04-12 22:37:45,257  INFO EventsManagerImpl:207     > org.matsim.api.core.v01.events.LinkLeaveEvent
2015-04-12 22:37:45,257  INFO EventsManagerImpl:148   org.matsim.api.core.v01.events.handler.PersonDepartureEventHandler
2015-04-12 22:37:45,258  INFO EventsManagerImpl:207     > org.matsim.api.core.v01.events.PersonDepartureEvent
2015-04-12 22:37:45,258  INFO EventsManagerImpl:156 
2015-04-12 22:37:45,258  INFO EventsManagerImpl:144 adding Event-Handler: org.matsim.analysis.LegHistogram
2015-04-12 22:37:45,258  INFO EventsManagerImpl:148   org.matsim.api.core.v01.events.handler.PersonDepartureEventHandler
2015-04-12 22:37:45,258  INFO EventsManagerImpl:207     > org.matsim.api.core.v01.events.PersonDepartureEvent
2015-04-12 22:37:45,258  INFO EventsManagerImpl:148   org.matsim.api.core.v01.events.handler.PersonArrivalEventHandler
2015-04-12 22:37:45,258  INFO EventsManagerImpl:207     > org.matsim.api.core.v01.events.PersonArrivalEvent
2015-04-12 22:37:45,258  INFO EventsManagerImpl:148   org.matsim.api.core.v01.events.handler.PersonStuckEventHandler
2015-04-12 22:37:45,258  INFO EventsManagerImpl:207     > org.matsim.api.core.v01.events.PersonStuckEvent
2015-04-12 22:37:45,258  INFO EventsManagerImpl:156 
2015-04-12 22:37:45,258  INFO EventsManagerImpl:144 adding Event-Handler: org.matsim.analysis.LegHistogram
2015-04-12 22:37:45,258  INFO EventsManagerImpl:148   org.matsim.api.core.v01.events.handler.PersonDepartureEventHandler
2015-04-12 22:37:45,259  INFO EventsManagerImpl:207     > org.matsim.api.core.v01.events.PersonDepartureEvent
2015-04-12 22:37:45,259  INFO EventsManagerImpl:148   org.matsim.api.core.v01.events.handler.PersonArrivalEventHandler
2015-04-12 22:37:45,259  INFO EventsManagerImpl:207     > org.matsim.api.core.v01.events.PersonArrivalEvent
2015-04-12 22:37:45,259  INFO EventsManagerImpl:148   org.matsim.api.core.v01.events.handler.PersonStuckEventHandler
2015-04-12 22:37:45,259  INFO EventsManagerImpl:207     > org.matsim.api.core.v01.events.PersonStuckEvent
2015-04-12 22:37:45,259  INFO EventsManagerImpl:156 
2015-04-12 22:37:45,259  INFO EventsManagerImpl:144 adding Event-Handler: org.matsim.analysis.CalcLegTimes
2015-04-12 22:37:45,259  INFO EventsManagerImpl:148   org.matsim.api.core.v01.events.handler.PersonDepartureEventHandler
2015-04-12 22:37:45,259  INFO EventsManagerImpl:207     > org.matsim.api.core.v01.events.PersonDepartureEvent
2015-04-12 22:37:45,259  INFO EventsManagerImpl:148   org.matsim.api.core.v01.events.handler.PersonArrivalEventHandler
2015-04-12 22:37:45,259  INFO EventsManagerImpl:207     > org.matsim.api.core.v01.events.PersonArrivalEvent
2015-04-12 22:37:45,260  INFO EventsManagerImpl:148   org.matsim.api.core.v01.events.handler.ActivityEndEventHandler
2015-04-12 22:37:45,260  INFO EventsManagerImpl:207     > org.matsim.api.core.v01.events.ActivityEndEvent
2015-04-12 22:37:45,260  INFO EventsManagerImpl:148   org.matsim.api.core.v01.events.handler.ActivityStartEventHandler
2015-04-12 22:37:45,260  INFO EventsManagerImpl:207     > org.matsim.api.core.v01.events.ActivityStartEvent
2015-04-12 22:37:45,260  INFO EventsManagerImpl:156 
2015-04-12 22:37:45,260  INFO EventsManagerImpl:144 adding Event-Handler: org.matsim.analysis.CalcLegTimes
2015-04-12 22:37:45,260  INFO EventsManagerImpl:148   org.matsim.api.core.v01.events.handler.PersonDepartureEventHandler
2015-04-12 22:37:45,260  INFO EventsManagerImpl:207     > org.matsim.api.core.v01.events.PersonDepartureEvent
2015-04-12 22:37:45,260  INFO EventsManagerImpl:148   org.matsim.api.core.v01.events.handler.PersonArrivalEventHandler
2015-04-12 22:37:45,260  INFO EventsManagerImpl:207     > org.matsim.api.core.v01.events.PersonArrivalEvent
2015-04-12 22:37:45,260  INFO EventsManagerImpl:148   org.matsim.api.core.v01.events.handler.ActivityEndEventHandler
2015-04-12 22:37:45,260  INFO EventsManagerImpl:207     > org.matsim.api.core.v01.events.ActivityEndEvent
2015-04-12 22:37:45,261  INFO EventsManagerImpl:148   org.matsim.api.core.v01.events.handler.ActivityStartEventHandler
2015-04-12 22:37:45,261  INFO EventsManagerImpl:207     > org.matsim.api.core.v01.events.ActivityStartEvent
2015-04-12 22:37:45,261  INFO EventsManagerImpl:156 
2015-04-12 22:37:45,261  INFO CalcLinkStats:148  resetting `count' to zero.  This info is here since we want to check when this is happening during normal simulation runs.  kai, jan'11
2015-04-12 22:37:45,261  INFO ControlerListenerManager:108 calling notifyStartup on org.matsim.counts.CountsControlerListener
2015-04-12 22:37:45,262  INFO ControlerListenerManager:108 calling notifyStartup on org.matsim.analysis.ScoreStatsControlerListener
2015-04-12 22:37:45,262  INFO ControlerListenerManager:111 all ControlerStartupListeners called.
2015-04-12 22:37:45,262  INFO ControlerUtils:57 config dump before iterations start
2015-04-12 22:37:45,263  INFO ControlerUtils:61 

<?xml version="1.0" encoding="UTF-8"?>
<!DOCTYPE config SYSTEM "http://www.matsim.org/files/dtd/config_v2.dtd">
<config>

<!-- ====================================================================== -->

	<module name="TimeAllocationMutator" >
		<param name="mutationAffectsDuration" value="true" />

		<!-- Default:1800.0; Defines how many seconds a time mutation can maximally shift a time. -->
		<param name="mutationRange" value="1800.0" />
	</module>

<!-- ====================================================================== -->

	<module name="controler" >

		<!-- Default=false;  -->
		<param name="enableLinkToLinkRouting" value="true" />

		<!-- Default=xml; Specifies the file format for writing events. Currently supported: txt, xml.
		Multiple values can be specified separated by commas (','). -->
		<param name="eventsFileFormat" value="xml" />

		<!-- Default=0;  -->
		<param name="firstIteration" value="0" />

		<!-- Default=1000;  -->
		<param name="lastIteration" value="10" />

		<!-- Defines which mobility simulation will be used. Currently supported: qsim JDEQSim 
		Depending on the chosen mobsim, you'll have to add additional config modules to configure the corresponding mobsim.
		For 'qsim', add a module 'qsim' to the config. -->
		<param name="mobsim" value="qsim" />

		<param name="outputDirectory" value="test/output/org/matsim/integration/signalsystems/SignalSystemsIntegrationTest/testSignalSystemsWTryEndTimeThenDuration/controlerOutput/" />

		<!-- The type of routing (least cost path) algorithm used, may have the values: Dijkstra, FastDijkstra, AStarLandmarks or FastAStarLandmarks -->
		<param name="routingAlgorithmType" value="Dijkstra" />

		<!-- An identifier for the current run which is used as prefix for output files and mentioned in output xml files etc. -->
		<param name="runId" value="null" />

		<!-- Comma-separated list of visualizer output file formats. `transims', `googleearth', and `otfvis'. -->
		<param name="snapshotFormat" value="" />

		<!-- iterationNumber % writeEventsInterval == 0 defines in which iterations events are written to a file. `0' disables events writing completely. -->
		<param name="writeEventsInterval" value="1" />

		<!-- iterationNumber % writePlansInterval == 0 defines (hopefully) in which iterations plans are written to a file. `0' disables plans writing completely.  Some plans in early iterations are always written -->
		<param name="writePlansInterval" value="10" />

		<!-- iterationNumber % writeSnapshotsInterval == 0 defines in which iterations snapshots are written to a file. `0' disables snapshots writing completely -->
		<param name="writeSnapshotsInterval" value="1" />
	</module>

<!-- ====================================================================== -->

	<module name="counts" >

		<!-- Transport modes that will be respected for the counts comparison. 'car' is default, which includes also bussed from the pt simulation module. Use this parameter in combination with 'filterModes' = true! -->
		<param name="analyzedModes" value="car" />

		<!-- Specifies over how many iterations the link volumes should be averaged that are used for the counts comparison. Use 1 or 0 to only use the link volumes of a single iteration. This values cannot be larger than the value specified for writeCountsInterval -->
		<param name="averageCountsOverIterations" value="5" />

		<!-- factor by which to re-scale the simulated values.  necessary when simulation runs with something different from 100%.  needs to be adapted manually -->
		<param name="countsScaleFactor" value="1.0" />

		<!-- distance to distanceFilterCenterNode to include counting stations. The unit of distance is the Euclidean distance implied by the coordinate system -->
		<param name="distanceFilter" value="null" />

		<!-- node id for center node of distance filter -->
		<param name="distanceFilterCenterNode" value="null" />

		<!-- If true, link counts from legs performed on modes not included in the 'analyzedModes' parameter are ignored. -->
		<param name="filterModes" value="false" />

		<!-- input file name to counts package -->
		<param name="inputCountsFile" value="null" />

		<!-- possible values: `html', `kml', `txt', `all' -->
		<param name="outputformat" value="txt" />

		<!-- Specifies how often the counts comparison should be calculated and written. -->
		<param name="writeCountsInterval" value="10" />
	</module>

<!-- ====================================================================== -->

	<module name="facilities" >
		<param name="inputFacilitiesFile" value="null" />
		<param name="inputFacilityAttributesFile" value="null" />
	</module>

<!-- ====================================================================== -->

	<module name="global" >
		<param name="coordinateSystem" value="Atlantis" />

		<!-- "global" number of threads.  This number is used, e.g., for replanning, but NOT in the mobsim.  This can typically be set to as many cores as you have available, or possibly even slightly more. -->
		<param name="numberOfThreads" value="2" />

		<param name="randomSeed" value="4711" />
	</module>

<!-- ====================================================================== -->

	<module name="households" >
		<param name="inputFile" value="null" />
		<param name="inputHouseholdAttributesFile" value="null" />
	</module>

<!-- ====================================================================== -->

	<module name="linkStats" >

		<!-- Specifies over how many iterations the link volumes should be averaged that are used for the link statistics. Use 1 or 0 to only use the link volumes of a single iteration. This values cannot be larger than the value specified for writeLinkStatsInterval -->
		<param name="averageLinkStatsOverIterations" value="5" />

		<!-- Specifies how often the link stats should be calculated and written. Use 0 to disable the generation of link stats. -->
		<param name="writeLinkStatsInterval" value="10" />
	</module>

<!-- ====================================================================== -->

	<module name="network" >
		<param name="inputChangeEventsFile" value="null" />
		<param name="inputNetworkFile" value="./test/input/org/matsim/integration/signalsystems/SignalSystemsIntegrationTest/network.xml.gz" />
		<param name="laneDefinitionsFile" value="./test/output/org/matsim/integration/signalsystems/SignalSystemsIntegrationTest/testSignalSystems/testLaneDefinitions_v2.0.xml" />
		<param name="timeVariantNetwork" value="false" />
	</module>

<!-- ====================================================================== -->

	<module name="parallelEventHandling" >

		<!-- Estimated number of events during mobsim run. An optional optimization hint for the framework. -->
		<param name="estimatedNumberOfEvents" value="null" />

		<!-- Number of threads for parallel events handler. 0 or null means the framework decides by itself. -->
		<param name="numberOfThreads" value="null" />
	</module>

<!-- ====================================================================== -->

	<module name="planCalcScore" >

		<!-- logit model scale parameter. default: 1.  Has name and default value for historical reasons (see Bryan Raney's phd thesis). -->
		<param name="BrainExpBeta" value="2.0" />

		<param name="PathSizeLogitBeta" value="1.0" />

		<!-- [utils/hr] utility for departing early (i.e. before the earliest end time).  Normally negative.  Probably implemented correctly, but not tested. -->
		<param name="earlyDeparture" value="-0.0" />

		<!-- [utils/hr] utility for arriving late (i.e. after the latest start time).  normally negative -->
		<param name="lateArrival" value="-18.0" />

		<!-- new_score = (1-learningRate)*old_score + learningRate * score_from_mobsim.  learning rates close to zero emulate score averaging, but slow down initial convergence -->
		<param name="learningRate" value="1.0" />

		<!-- [utils/unit_of_money] conversion of money (e.g. toll, distance cost) into utils. Normall positive (i.e. toll/cost/fare are processed as negative amounts of money). -->
		<param name="marginalUtilityOfMoney" value="1.0" />

		<!-- [utils/hr] marginal utility of doing an activity.  normally positive.  also the opportunity cost of time if agent is doing nothing.  MATSim separates the resource value of time from the direct (dis)utility of travel time, see, e.g., Boerjesson and Eliasson, TR-A 59 (2014) 144-158. -->
		<param name="performing" value="6.0" />

		<!-- There used to be a plateau between duration=0 and duration=zeroUtilityDuration. This caused durations to evolve to zero once they were below zeroUtilityDuration, causing problems.  Only use this switch if you need to be backwards compatible with some old results.  (changed nov'13) -->
		<param name="usingOldScoringBelowZeroUtilityDuration" value="false" />

		<!-- [utils] utility of switching a line (= transfer penalty).  Normally negative -->
		<param name="utilityOfLineSwitch" value="-1.0" />

		<!-- [utils/hr] additional marginal utility for waiting. normally negative. this comes on top of the opportunity cost of time.  Probably implemented correctly, but not tested. -->
		<param name="waiting" value="-0.0" />

		<!-- write a plans file in each iteration directory which contains what each agent actually did, and the score it received. -->
		<param name="writeExperiencedPlans" value="false" />

		<parameterset type="activityParams" >
			<param name="activityType" value="h" />
			<param name="closingTime" value="undefined" />
			<param name="earliestEndTime" value="undefined" />
			<param name="latestStartTime" value="undefined" />
			<param name="minimalDuration" value="undefined" />
			<param name="openingTime" value="undefined" />
			<param name="priority" value="1.0" />
			<param name="scoringThisActivityAtAll" value="true" />
			<param name="typicalDuration" value="12:00:00" />

			<!-- method to compute score at typical duration.  Use uniform for backwards compatibility (all activities same score; higher proba to drop long acts). -->
			<param name="typicalDurationScoreComputation" value="uniform" />
		</parameterset>

		<parameterset type="activityParams" >
			<param name="activityType" value="w" />
			<param name="closingTime" value="undefined" />
			<param name="earliestEndTime" value="undefined" />
			<param name="latestStartTime" value="undefined" />
			<param name="minimalDuration" value="undefined" />
			<param name="openingTime" value="undefined" />
			<param name="priority" value="1.0" />
			<param name="scoringThisActivityAtAll" value="true" />
			<param name="typicalDuration" value="08:00:00" />

			<!-- method to compute score at typical duration.  Use uniform for backwards compatibility (all activities same score; higher proba to drop long acts). -->
			<param name="typicalDurationScoreComputation" value="uniform" />
		</parameterset>

		<parameterset type="modeParams" >

			<!-- [utils] alternative-specific constant.  no guarantee that this is used anywhere. default=0 to be backwards compatible for the time being -->
			<param name="constant" value="0.0" />

			<!-- [utils/m] utility of walking per m, normally negative.  this is on top of the time (dis)utility. -->
[...]
2015-04-12 22:37:50,955  INFO NetworkImpl:128  node # 1
2015-04-12 22:37:50,955  INFO NetworkImpl:128  node # 2
2015-04-12 22:37:50,955  INFO NetworkImpl:128  node # 4
2015-04-12 22:37:50,955  INFO NetworkImpl:128  node # 8
2015-04-12 22:37:50,956  INFO NetworkImpl:124  link # 1
2015-04-12 22:37:50,956  INFO NetworkImpl:124  link # 2
2015-04-12 22:37:50,956  INFO NetworkImpl:124  link # 4
2015-04-12 22:37:50,956  INFO NetworkImpl:124  link # 8
2015-04-12 22:37:50,957  INFO NetworkImpl:124  link # 16
2015-04-12 22:37:50,957  INFO NetworkInverter:72 Generated 12 Nodes and 24 Links
2015-04-12 22:37:50,957  WARN LinkToLinkTripRouterFactory:74 Link to link routing only affects car legs, which is correct if turning move costs only affect rerouting of car legs.
2015-04-12 22:37:50,957  INFO NetworkImpl:128  node # 1
2015-04-12 22:37:50,957  INFO NetworkImpl:128  node # 2
2015-04-12 22:37:50,957  INFO NetworkImpl:128  node # 4
2015-04-12 22:37:50,958  INFO NetworkImpl:128  node # 8
2015-04-12 22:37:50,958  INFO NetworkImpl:124  link # 1
2015-04-12 22:37:50,958  INFO NetworkImpl:124  link # 2
2015-04-12 22:37:50,958  INFO NetworkImpl:124  link # 4
2015-04-12 22:37:50,958  INFO NetworkImpl:124  link # 8
2015-04-12 22:37:50,958  INFO NetworkImpl:124  link # 16
2015-04-12 22:37:50,959  INFO NetworkInverter:72 Generated 12 Nodes and 24 Links
2015-04-12 22:37:50,959  WARN LinkToLinkTripRouterFactory:74 Link to link routing only affects car legs, which is correct if turning move costs only affect rerouting of car legs.
2015-04-12 22:37:50,962  INFO GenericPlanStrategyImpl:125 Plan-Strategy finished, 2916 plans handled. Strategy: BestPlanSelector
2015-04-12 22:37:50,962  INFO AbstractMultithreadedModule:140 [PlanMutateTimeAllocationSimplified] starting 2 threads, handling 351 plans
2015-04-12 22:37:50,963  INFO Counter:51 [PlanMutateTimeAllocationSimplified] handled plan # 1
2015-04-12 22:37:50,963  INFO Counter:51 [PlanMutateTimeAllocationSimplified] handled plan # 2
2015-04-12 22:37:50,963  INFO Counter:51 [PlanMutateTimeAllocationSimplified] handled plan # 4
2015-04-12 22:37:50,963  INFO Counter:51 [PlanMutateTimeAllocationSimplified] handled plan # 8
2015-04-12 22:37:50,963  INFO Counter:51 [PlanMutateTimeAllocationSimplified] handled plan # 16
2015-04-12 22:37:50,963  INFO Counter:51 [PlanMutateTimeAllocationSimplified] handled plan # 32
2015-04-12 22:37:50,963  INFO Counter:51 [PlanMutateTimeAllocationSimplified] handled plan # 64
2015-04-12 22:37:50,963  INFO Counter:51 [PlanMutateTimeAllocationSimplified] handled plan # 128
2015-04-12 22:37:50,963  INFO Counter:51 [PlanMutateTimeAllocationSimplified] handled plan # 256
2015-04-12 22:37:50,963  INFO AbstractMultithreadedModule:155 [PlanMutateTimeAllocationSimplified] all 2 threads finished.
2015-04-12 22:37:50,964  INFO GenericPlanStrategyImpl:125 Plan-Strategy finished, 351 plans handled. Strategy: RandomPlanSelector_TimeAllocationMutator
2015-04-12 22:37:50,964  INFO AbstractMultithreadedModule:140 [PlanRouter] starting 2 threads, handling 397 plans
2015-04-12 22:37:50,964  INFO Counter:51 [PlanRouter] handled plan # 2
2015-04-12 22:37:50,964  INFO Counter:51 [PlanRouter] handled plan # 1
2015-04-12 22:37:50,964  INFO Counter:51 [PlanRouter] handled plan # 4
2015-04-12 22:37:50,965  INFO Counter:51 [PlanRouter] handled plan # 8
2015-04-12 22:37:50,965  INFO Counter:51 [PlanRouter] handled plan # 16
2015-04-12 22:37:50,965  INFO Counter:51 [PlanRouter] handled plan # 32
2015-04-12 22:37:50,965  INFO Counter:51 [PlanRouter] handled plan # 64
2015-04-12 22:37:50,966  INFO Counter:51 [PlanRouter] handled plan # 128
2015-04-12 22:37:50,967  INFO Counter:51 [PlanRouter] handled plan # 256
2015-04-12 22:37:50,969  INFO AbstractMultithreadedModule:155 [PlanRouter] all 2 threads finished.
2015-04-12 22:37:50,970  INFO GenericPlanStrategyImpl:125 Plan-Strategy finished, 397 plans handled. Strategy: RandomPlanSelector_ReRoute
2015-04-12 22:37:50,970  INFO ControlerListenerManager:214 [it.10] all ControlerReplanningListeners called.
2015-04-12 22:37:50,970  INFO ControlerListenerManager:225 calling notifyBeforeMobsim on org.matsim.core.controler.corelisteners.EventsHandling
2015-04-12 22:37:50,970  INFO EventsManagerImpl:170 resetting Event-Handlers
2015-04-12 22:37:50,971  INFO EventsManagerImpl:177   org.matsim.core.trafficmonitoring.TravelTimeCalculator
2015-04-12 22:37:50,971  INFO EventsManagerImpl:177   org.matsim.analysis.VolumesAnalyzer
2015-04-12 22:37:50,971  INFO EventsManagerImpl:177   org.matsim.analysis.LegHistogram
2015-04-12 22:37:50,971  INFO EventsManagerImpl:177   org.matsim.analysis.CalcLegTimes
2015-04-12 22:37:50,971  INFO EventsManagerImpl:177   org.matsim.core.scoring.EventsToScore
2015-04-12 22:37:50,977  INFO EventsManagerImpl:177   org.matsim.contrib.signals.model.IntergreensLogicImpl
2015-04-12 22:37:50,977  INFO EventsManagerImpl:177   org.matsim.contrib.signals.model.IntergreensLogicImpl
2015-04-12 22:37:50,977  INFO EventsManagerImpl:177   org.matsim.contrib.signals.model.IntergreensLogicImpl
2015-04-12 22:37:50,978  INFO EventsManagerImpl:177   org.matsim.contrib.signals.model.IntergreensLogicImpl
2015-04-12 22:37:50,978  INFO EventsManagerImpl:177   org.matsim.contrib.signals.model.IntergreensLogicImpl
2015-04-12 22:37:50,978  INFO EventsManagerImpl:177   org.matsim.contrib.signals.model.IntergreensLogicImpl
2015-04-12 22:37:50,978  INFO EventsManagerImpl:177   org.matsim.contrib.signals.model.IntergreensLogicImpl
2015-04-12 22:37:50,978  INFO EventsManagerImpl:177   org.matsim.contrib.signals.model.IntergreensLogicImpl
2015-04-12 22:37:50,978  INFO EventsManagerImpl:177   org.matsim.contrib.signals.model.IntergreensLogicImpl
2015-04-12 22:37:50,978  INFO EventsManagerImpl:177   org.matsim.contrib.signals.model.IntergreensLogicImpl
2015-04-12 22:37:50,978  INFO EventsManagerImpl:177   org.matsim.contrib.signals.model.IntergreensLogicImpl
2015-04-12 22:37:50,978  INFO EventsManagerImpl:144 adding Event-Handler: org.matsim.core.events.algorithms.EventWriterXML
2015-04-12 22:37:50,978  INFO EventsManagerImpl:148   org.matsim.core.events.algorithms.EventWriter
2015-04-12 22:37:50,979  INFO EventsManagerImpl:148   org.matsim.core.events.handler.BasicEventHandler
2015-04-12 22:37:50,979  INFO EventsManagerImpl:207     > org.matsim.api.core.v01.events.Event
2015-04-12 22:37:50,979  INFO EventsManagerImpl:156 
2015-04-12 22:37:50,979  INFO EventsManagerImpl:144 adding Event-Handler: org.matsim.core.events.algorithms.EventWriterXML
2015-04-12 22:37:50,979  INFO EventsManagerImpl:148   org.matsim.core.events.algorithms.EventWriter
2015-04-12 22:37:50,979  INFO EventsManagerImpl:148   org.matsim.core.events.handler.BasicEventHandler
2015-04-12 22:37:50,979  INFO EventsManagerImpl:207     > org.matsim.api.core.v01.events.Event
2015-04-12 22:37:50,979  INFO EventsManagerImpl:156 
2015-04-12 22:37:50,979  INFO ControlerListenerManager:225 calling notifyBeforeMobsim on org.matsim.core.controler.corelisteners.PlansDumping
2015-04-12 22:37:50,980  INFO PlansDumping:77 dumping plans...
2015-04-12 22:37:50,981  INFO Counter:51 [PopulationWriter] dumped person # 1
2015-04-12 22:37:50,981  INFO Counter:51 [PopulationWriter] dumped person # 2
2015-04-12 22:37:50,981  INFO Counter:51 [PopulationWriter] dumped person # 4
2015-04-12 22:37:50,981  INFO Counter:51 [PopulationWriter] dumped person # 8
2015-04-12 22:37:50,982  INFO Counter:51 [PopulationWriter] dumped person # 16
2015-04-12 22:37:50,982  INFO Counter:51 [PopulationWriter] dumped person # 32
2015-04-12 22:37:50,983  INFO Counter:51 [PopulationWriter] dumped person # 64
2015-04-12 22:37:50,984  INFO Counter:51 [PopulationWriter] dumped person # 128
2015-04-12 22:37:50,988  INFO Counter:51 [PopulationWriter] dumped person # 256
2015-04-12 22:37:50,994  INFO Counter:51 [PopulationWriter] dumped person # 512
2015-04-12 22:37:51,007  INFO Counter:51 [PopulationWriter] dumped person # 1024
2015-04-12 22:37:51,032  INFO Counter:51 [PopulationWriter] dumped person # 2048
2015-04-12 22:37:51,071  INFO PopulationWriter:95 Population written to: test/output/org/matsim/integration/signalsystems/SignalSystemsIntegrationTest/testSignalSystemsWTryEndTimeThenDuration/controlerOutput/ITERS/it.10/10.plans.xml.gz
2015-04-12 22:37:51,071  INFO Counter:57 [PopulationWriter] dumped person # 3664
2015-04-12 22:37:51,072  INFO PlansDumping:79 finished plans dump.
2015-04-12 22:37:51,072  INFO ControlerListenerManager:230 calling notifyBeforeMobsim on org.matsim.population.VspPlansCleaner
2015-04-12 22:37:51,073  INFO ControlerListenerManager:233 [it.10] all ControlerBeforeMobsimListeners called.
2015-04-12 22:37:51,073  INFO QNetsimEngine:164 Lanes enabled...
2015-04-12 22:37:51,074  INFO MobsimListenerManager:49 calling addQueueSimulationListener
2015-04-12 22:37:51,074  INFO MobsimListenerManager:53   assigned class org.matsim.core.mobsim.framework.listeners.MobsimListener to interface org.matsim.contrib.signals.mobsim.QSimSignalEngine
2015-04-12 22:37:51,074  INFO MobsimListenerManager:53   assigned class org.matsim.core.mobsim.framework.listeners.MobsimListener to interface org.matsim.core.mobsim.framework.listeners.MobsimBeforeSimStepListener
2015-04-12 22:37:51,074  INFO MobsimListenerManager:53   assigned class org.matsim.core.mobsim.framework.listeners.MobsimListener to interface org.matsim.core.mobsim.framework.listeners.MobsimInitializedListener
2015-04-12 22:37:51,074  INFO MobsimListenerManager:53   assigned class org.matsim.core.mobsim.framework.listeners.MobsimListener to interface org.matsim.contrib.signals.mobsim.SignalEngine
2015-04-12 22:37:51,074  INFO MobsimListenerManager:53   assigned class org.matsim.core.mobsim.framework.listeners.MobsimListener to interface org.matsim.core.mobsim.framework.listeners.MobsimListener
2015-04-12 22:37:51,074  INFO MobsimListenerManager:49 calling addQueueSimulationListener
2015-04-12 22:37:51,074  INFO MobsimListenerManager:53   assigned class org.matsim.core.mobsim.framework.listeners.MobsimListener to interface org.matsim.core.mobsim.framework.listeners.MobsimBeforeCleanupListener
2015-04-12 22:37:51,075  INFO MobsimListenerManager:53   assigned class org.matsim.core.mobsim.framework.listeners.MobsimListener to interface org.matsim.core.mobsim.framework.listeners.MobsimAfterSimStepListener
2015-04-12 22:37:51,075  INFO MobsimListenerManager:53   assigned class org.matsim.core.mobsim.framework.listeners.MobsimListener to interface org.matsim.core.mobsim.framework.listeners.MobsimInitializedListener
2015-04-12 22:37:51,075  INFO MobsimListenerManager:53   assigned class org.matsim.core.mobsim.framework.listeners.MobsimListener to interface org.matsim.core.mobsim.framework.listeners.MobsimListener
2015-04-12 22:37:51,075  INFO MobsimListenerManager:53   assigned class org.matsim.core.mobsim.framework.listeners.MobsimListener to interface org.matsim.vis.snapshotwriters.SnapshotWriterManager
2015-04-12 22:37:51,083  INFO QNetsimEngine:531 Assigned 9 nodes and 12 links to QSimEngineRunner #0
2015-04-12 22:37:51,083 DEBUG QSimSignalEngine:67 initializing signal 3 on link 4
2015-04-12 22:37:51,083 DEBUG QSimSignalEngine:67 initializing signal 2 on link 6
2015-04-12 22:37:51,083 DEBUG QSimSignalEngine:67 initializing signal 1 on link 6
2015-04-12 22:37:51,083 DEBUG QSimSignalEngine:67 initializing signal 6 on link 8
2015-04-12 22:37:51,083 DEBUG QSimSignalEngine:67 initializing signal 5 on link 2
2015-04-12 22:37:51,083 DEBUG QSimSignalEngine:67 initializing signal 4 on link 2
2015-04-12 22:37:51,085  INFO QNetsimEngine:364 SIMULATION (QNetsimEngine) AT 02:12:59 : #links=1 #nodes=1
2015-04-12 22:37:51,085  INFO QSim:427 SIMULATION (NEW QSim) AT 02:12:59 : #Veh=3664 lost=0 simT=0.0s realT=0s; (s/r): 0.0
2015-04-12 22:37:51,085  INFO Gbl:52 used RAM: 278263840B = 271742kB = 265MB  free: 346163168B = 330MB  total: 624427008B = 595MB
2015-04-12 22:37:51,174  INFO QNetsimEngine:364 SIMULATION (QNetsimEngine) AT 03:00:00 : #links=8 #nodes=1
2015-04-12 22:37:51,174  INFO QSim:427 SIMULATION (NEW QSim) AT 03:00:00 : #Veh=3442 lost=0 simT=2821.0s realT=0s; (s/r): Infinity
2015-04-12 22:37:51,175  INFO Gbl:52 used RAM: 282349872B = 275732kB = 269MB  free: 342077136B = 326MB  total: 624427008B = 595MB
2015-04-12 22:37:51,508  INFO QNetsimEngine:364 SIMULATION (QNetsimEngine) AT 04:00:00 : #links=10 #nodes=2
2015-04-12 22:37:51,508  INFO QSim:427 SIMULATION (NEW QSim) AT 04:00:00 : #Veh=279 lost=0 simT=6421.0s realT=0s; (s/r): Infinity
2015-04-12 22:37:51,508  INFO Gbl:52 used RAM: 317652232B = 310207kB = 302MB  free: 306774776B = 292MB  total: 624427008B = 595MB
2015-04-12 22:37:51,616  INFO Gbl:185 Thread performance: Thread=QNetsimEngineRunner_0  cpu-time=0.144551454sec
2015-04-12 22:37:51,616  INFO AbstractController$6:328 ### ITERATION 10 fires after mobsim event
2015-04-12 22:37:51,617  INFO ControlerListenerManager:244 calling notifyAfterMobsim on org.matsim.core.controler.corelisteners.EventsHandling
2015-04-12 22:37:51,617  INFO ControlerListenerManager:249 calling notifyAfterMobsim on org.matsim.analysis.LegTimesControlerListener
2015-04-12 22:37:51,617  INFO Gbl:185 Thread performance: Thread=class org.matsim.core.events.SimStepParallelEventsManagerImpl$ProcessEventsRunnable0  cpu-time=0.408335534sec
2015-04-12 22:37:51,617  INFO LegTimesControlerListener:50 [10] average trip (probably: leg) duration is: 59 seconds = 00:00:59
2015-04-12 22:37:51,617  INFO ControlerListenerManager:252 [it.10] all ControlerAfterMobsimListeners called.
2015-04-12 22:37:51,617  INFO AbstractController$4:265 ### ITERATION 10 fires scoring event
2015-04-12 22:37:51,617  INFO ControlerListenerManager:184 calling notifyScoring on org.matsim.core.controler.corelisteners.PlansScoring
2015-04-12 22:37:51,625  INFO EventsToScore:192 it: 10 msaStart: null
2015-04-12 22:37:51,627  INFO ControlerListenerManager:195 [it.10] all ControlerScoringListeners called.
2015-04-12 22:37:51,627  INFO AbstractController$5:273 ### ITERATION 10 fires iteration end event
2015-04-12 22:37:51,627  INFO ControlerListenerManager:161 calling notifyIterationEnds on org.matsim.core.controler.corelisteners.EventsHandling
2015-04-12 22:37:51,628  INFO EventsManagerImpl:161 removing Event-Handler: org.matsim.core.events.algorithms.EventWriterXML
2015-04-12 22:37:51,629  INFO EventsManagerImpl:161 removing Event-Handler: org.matsim.core.events.algorithms.EventWriterXML
2015-04-12 22:37:51,629  INFO ControlerListenerManager:161 calling notifyIterationEnds on org.matsim.core.controler.corelisteners.PlansScoring
2015-04-12 22:37:51,629  INFO EventsManagerImpl:161 removing Event-Handler: org.matsim.core.scoring.EventsToScore
2015-04-12 22:37:51,629  INFO EventsManagerImpl:161 removing Event-Handler: org.matsim.core.scoring.EventsToScore
2015-04-12 22:37:51,629  INFO TravelDistanceStats:122 [TravelDistanceStats] using 2 thread(s).
2015-04-12 22:37:51,631  INFO TravelDistanceStats:135 [TravelDistanceStats] all threads finished.
2015-04-12 22:37:51,631  INFO TravelDistanceStats:155 -- average of the average leg distance per plan (executed plans only): 300.0
2015-04-12 22:37:51,631  INFO TravelDistanceStats:156 (TravelDistanceStats takes an average over all legs where the simulation reports travelled distances. These are car legs, pt legs,
2015-04-12 22:37:51,631  INFO TravelDistanceStats:157 (and teleported legs whose route contains a distance.)
2015-04-12 22:37:51,631  INFO ControlerListenerManager:168 calling notifyIterationEnds on org.matsim.counts.CountsControlerListener
2015-04-12 22:37:51,632  INFO ControlerListenerManager:168 calling notifyIterationEnds on org.matsim.analysis.ScoreStatsControlerListener
2015-04-12 22:37:51,632  INFO ScoreStatsControlerListener:187 -- avg. score of the executed plan of each agent: 109.75844194882298
2015-04-12 22:37:51,633  INFO ScoreStatsControlerListener:188 -- avg. score of the worst plan of each agent: 109.72690276357883
2015-04-12 22:37:51,633  INFO ScoreStatsControlerListener:189 -- avg. of the avg. plan score per agent: 109.74525399311854
2015-04-12 22:37:51,633  INFO ScoreStatsControlerListener:190 -- avg. score of the best plan of each agent: 109.76317154536049
2015-04-12 22:37:51,633  INFO ControlerListenerManager:168 calling notifyIterationEnds on org.matsim.core.controler.corelisteners.LegHistogramListener
2015-04-12 22:37:51,637  INFO LegHistogramListener:81 number of legs:	3664	100%
2015-04-12 22:37:51,637  INFO LegHistogramListener:88 number of car legs:	3664	100.0%
2015-04-12 22:37:51,637  INFO LegHistogramListener:90 (car legs include legs by pt vehicles)
2015-04-12 22:37:51,638  INFO ControlerListenerManager:168 calling notifyIterationEnds on org.matsim.core.controler.corelisteners.LinkStatsControlerListener
2015-04-12 22:37:51,640  INFO ControlerListenerManager:172 [it.10] all ControlerIterationEndsListeners called.
2015-04-12 22:37:51,643  INFO AbstractController:283 ### ITERATION 10 ENDS
2015-04-12 22:37:51,643  INFO AbstractController:284 ###################################################
2015-04-12 22:37:51,643  INFO AbstractController:202 S H U T D O W N   ---   start shutdown.
2015-04-12 22:37:51,643  INFO ControlerListenerManager:122 calling notifyShutdown on org.matsim.core.controler.corelisteners.EventsHandling
2015-04-12 22:37:51,643  INFO ControlerListenerManager:122 calling notifyShutdown on org.matsim.core.controler.corelisteners.PlansScoring
2015-04-12 22:37:51,643  INFO ControlerListenerManager:127 calling notifyShutdown on org.matsim.analysis.ScoreStatsControlerListener
2015-04-12 22:37:51,643  INFO ControlerListenerManager:127 calling notifyShutdown on org.matsim.contrib.signals.controler.DefaultSignalsControllerListener
2015-04-12 22:37:51,643  INFO SignalSystemsWriter20:102 writing file: test/output/org/matsim/integration/signalsystems/SignalSystemsIntegrationTest/testSignalSystemsWTryEndTimeThenDuration/controlerOutput/output_signal_systems_v2.0.xml.gz
2015-04-12 22:37:51,652  INFO SignalSystemsWriter20:111 test/output/org/matsim/integration/signalsystems/SignalSystemsIntegrationTest/testSignalSystemsWTryEndTimeThenDuration/controlerOutput/output_signal_systems_v2.0.xml.gz written successfully.
2015-04-12 22:37:51,652  INFO SignalGroupsWriter20:64 writing file: test/output/org/matsim/integration/signalsystems/SignalSystemsIntegrationTest/testSignalSystemsWTryEndTimeThenDuration/controlerOutput/output_signal_groups_v2.0.xml.gz
2015-04-12 22:37:51,659  INFO SignalGroupsWriter20:73 test/output/org/matsim/integration/signalsystems/SignalSystemsIntegrationTest/testSignalSystemsWTryEndTimeThenDuration/controlerOutput/output_signal_groups_v2.0.xml.gz written successfully.
2015-04-12 22:37:51,659  INFO SignalControlWriter20:129 writing file: test/output/org/matsim/integration/signalsystems/SignalSystemsIntegrationTest/testSignalSystemsWTryEndTimeThenDuration/controlerOutput/output_signal_control_v2.0.xml.gz
2015-04-12 22:37:51,670  INFO SignalControlWriter20:138 test/output/org/matsim/integration/signalsystems/SignalSystemsIntegrationTest/testSignalSystemsWTryEndTimeThenDuration/controlerOutput/output_signal_control_v2.0.xml.gz written successfully.
2015-04-12 22:37:51,671  INFO AmberTimesWriter10:126 writing file: test/output/org/matsim/integration/signalsystems/SignalSystemsIntegrationTest/testSignalSystemsWTryEndTimeThenDuration/controlerOutput/output_amber_times_v1.0.xml.gz
2015-04-12 22:37:51,681  INFO IntergreenTimesWriter10:95 writing file: test/output/org/matsim/integration/signalsystems/SignalSystemsIntegrationTest/testSignalSystemsWTryEndTimeThenDuration/controlerOutput/output_intergreen_times_v1.0.xml.gz
2015-04-12 22:37:51,688  INFO ControlerListenerManager:130 all ControlerShutdownListeners called.
2015-04-12 22:37:51,688  INFO AbstractController:225 S H U T D O W N   ---   shutdown completed.
2015-04-12 22:37:51,689  INFO OutputDirectoryLogging:168 closing the logfile, i.e. messages sent to the logger after this message are not written to the logfile.
