2022-03-25T09:46:13,075  INFO Gbl:63 JVM: 11.0.14; Ubuntu; mixed mode, sharing; 64-bit
2022-03-25T09:46:13,076  INFO Gbl:67 OS: Linux; 5.13.0-37-generic; amd64
2022-03-25T09:46:13,076  INFO Gbl:70 CPU cores: 8
2022-03-25T09:46:13,080  INFO Gbl:71 max. Memory: 8000.0MB (8388608000B)
2022-03-25T09:46:13,084  INFO Gbl:109 MATSim-Build: r9168c9dae99b69237de4f8520db448bf1ce427a1 (2022-03-25 09:35:47)
2022-03-25T09:46:13,106  INFO ControlerListenerManagerImpl:110 all ControlerStartupListeners called.
2022-03-25T09:46:13,107  INFO ControlerUtils:79 config dump before iterations start
2022-03-25T09:46:13,118  INFO MemoryObserver:41 used RAM: 15 MB  free: 488 MB  total: 504 MB
2022-03-25T09:46:13,149  INFO ControlerUtils:83 

<?xml version="1.0" encoding="UTF-8"?>
<!DOCTYPE config SYSTEM "http://www.matsim.org/files/dtd/config_v2.dtd">
<config>
	<module name="JDEQSim" >
		<param name="carSize" value="7.5" />
		<param name="endTime" value="undefined" />
		<param name="flowCapacityFactor" value="1.0" />
		<param name="gapTravelSpeed" value="15.0" />
		<param name="minimumInFlowCapacity" value="1800.0" />
		<param name="squeezeTime" value="1800.0" />
		<param name="storageCapacityFactor" value="1.0" />
	</module>
	<module name="ReplanningAnnealer" >
		<!-- Activate the scaling of replanning modules using an annealing approach rather than fixed rates. -->
		<param name="activateAnnealingModule" value="false" />
	</module>
	<module name="TimeAllocationMutator" >
		<!-- Default:true; Defines whether time mutation changes an activity's duration. -->
		<param name="mutationAffectsDuration" value="true" />
		<!-- Default:1800.0; Defines how many seconds a time mutation can maximally shift a time. -->
		<param name="mutationRange" value="1800.0" />
	</module>
	<module name="changeMode" >
		<!-- Defines whether car availability is considered be considered or not. An agent has no car only if it has no license, or never access to a car. Default: true -->
		<param name="ignoreCarAvailability" value="true" />
		<!-- Defines the mode switch behavior. Possible values [fromAllModesToSpecifiedModes, fromSpecifiedModesToSpecifiedModes] Default: fromSpecifiedModesToSpecifiedModes. -->
		<param name="modeSwitchBehavior" value="fromSpecifiedModesToSpecifiedModes" />
		<!-- Defines all the modes available, including chain-based modes, seperated by commas -->
		<param name="modes" value="car,pt" />
	</module>
	<module name="controler" >
		<!-- Compression algorithm to use when writing out data to files. Possible values: [none, gzip, lz4, zst] -->
		<param name="compressionType" value="gzip" />
		<!-- Sets whether graphs showing some analyses should automatically be generated during the simulation. The generation of graphs usually takes a small amount of time that does not have any weight in big simulations, but add a significant overhead in smaller runs or in test cases where the graphical output is not even requested. -->
		<param name="createGraphs" value="false" />
		<!-- true if at the end of a run, plans, network, config etc should be dumped to a file -->
		<param name="dumpDataAtEnd" value="false" />
		<!-- Default=false. If enabled, the router takes travel times needed for turning moves into account. Cannot be used if the (Fast)AStarLandmarks routing or TravelTimeCalculator.separateModes is enabled. -->
		<param name="enableLinkToLinkRouting" value="false" />
		<!-- Default=xml; Specifies the file format for writing events. Currently supported: [xml, pb, json]
		Multiple values can be specified separated by commas (','). -->
		<param name="eventsFileFormat" value="xml" />
		<!-- Default=0. First Iteration of a simulation. -->
		<param name="firstIteration" value="0" />
		<!-- Default=1000. Last Iteration of a simulation. -->
		<param name="lastIteration" value="0" />
		<!-- Defines which mobility simulation will be used. Currently supported: qsim JDEQSim hermes 
		Depending on the chosen mobsim, you'll have to add additional config modules to configure the corresponding mobsim.
		For 'qsim', add a module 'qsim' to the config. -->
		<param name="mobsim" value="qsim" />
		<param name="outputDirectory" value="abcdef" />
		<!-- Possible values: failIfDirectoryExists, overwriteExistingFiles, deleteDirectoryIfExists -->
		<param name="overwriteFiles" value="deleteDirectoryIfExists" />
		<!-- The type of routing (least cost path) algorithm used, may have the values: [Dijkstra, AStarLandmarks, FastDijkstra, FastAStarLandmarks, SpeedyALT] -->
		<param name="routingAlgorithmType" value="AStarLandmarks" />
		<!-- An identifier for the current run which is used as prefix for output files and mentioned in output xml files etc. -->
		<param name="runId" value="null" />
		<!-- Comma-separated list of visualizer output file formats. `transims', `googleearth', and `otfvis'. -->
		<param name="snapshotFormat" value="" />
		<!-- iterationNumber % writeEventsInterval == 0 defines in which iterations events are written to a file. `0' disables events writing completely. -->
		<param name="writeEventsInterval" value="0" />
		<!-- iterationNumber % writePlansInterval == 0 defines (hopefully) in which iterations plans are written to a file. `0' disables plans writing completely.  Some plans in early iterations are always written -->
		<param name="writePlansInterval" value="0" />
		<!-- iterationNumber % writeSnapshotsInterval == 0 defines in which iterations snapshots are written to a file. `0' disables snapshots writing completely -->
		<param name="writeSnapshotsInterval" value="1" />
		<!-- iterationNumber % writeEventsInterval == 0 defines in which iterations trips CSV are written to a file. `0' disables trips writing completely. -->
		<param name="writeTripsInterval" value="50" />
	</module>
	<module name="counts" >
		<!-- Transport modes that will be respected for the counts comparison. 'car' is default, which includes also bussed from the pt simulation module. Use this parameter in combination with 'filterModes' = true! -->
		<param name="analyzedModes" value="car" />
		<!-- Specifies over how many iterations the link volumes should be averaged that are used for the counts comparison. Use 1 or 0 to only use the link volumes of a single iteration. This values cannot be larger than the value specified for writeCountsInterval -->
		<param name="averageCountsOverIterations" value="5" />
		<!-- factor by which to re-scale the simulated values.  necessary when simulation runs with something different from 100%.  needs to be adapted manually -->
		<param name="countsScaleFactor" value="1.0" />
		<!-- distance to distanceFilterCenterNode to include counting stations. The unit of distance is the Euclidean distance implied by the coordinate system -->
		<param name="distanceFilter" value="null" />
		<!-- node id for center node of distance filter -->
		<param name="distanceFilterCenterNode" value="null" />
		<!-- If true, link counts from legs performed on modes not included in the 'analyzedModes' parameter are ignored. -->
		<param name="filterModes" value="false" />
		<!-- The Coordinates Reference System in which the coordinates are expressed in the input file. At import, the coordinates will be converted to the coordinate system defined in "global", and willbe converted back at export. If not specified, no conversion happens. -->
		<param name="inputCRS" value="null" />
		<!-- input file name to counts package -->
		<param name="inputCountsFile" value="null" />
		<!-- possible values: `html', `kml', `txt', `all' -->
		<param name="outputformat" value="txt" />
		<!-- Specifies how often the counts comparison should be calculated and written. -->
		<param name="writeCountsInterval" value="10" />
	</module>
	<module name="dvrp" >
		<param name="initialTravelTimesFile" value="null" />
		<!-- Mode of which the network will be used for throwing events and hence calculating travel times. Default is car. -->
		<param name="mobsimMode" value="car" />
		<!-- Set of modes of which the network will be used for DVRP travel time estimation and routing DVRP vehicles. Each specific DVRP mode may use a subnetwork of this network for routing vehicles (e.g. DRT buses travelling only along a specified links or serving a limited area). Default is "car" (i.e. single-element set of modes), i.e. the car network is used. Empty value "" (i.e. empty set of modes) means no network filtering, i.e. the original scenario.network is used -->
		<param name="networkModes" value="" />
		<!-- Used for OFFLINE estimation of travel times for VrpOptimizer by means of the exponential moving average. The weighting decrease, alpha, must be in (0,1]. We suggest small values of alpha, e.g. 0.05. The averaging starts from the initial travel time estimates. If not provided, the free-speed TTs is used as the initial estimates -->
		<param name="travelTimeEstimationAlpha" value="0.05" />
		<!-- Used for ONLINE estimation of travel times for VrpOptimizer by combining WithinDayTravelTime and DvrpOfflineTravelTimeEstimator. The beta coefficient is provided in seconds and should be either 0 (no online estimation) or positive (mixed online-offline estimation). For 'beta = 0', only the offline estimate is used: 'onlineTT(t) = offlineTT(t)', where 'offlineTT(t)' in the offline estimate for TT at time 't', For 'beta > 0', estimating future TTs at time 't', uses the currently observed TT to correct the offline estimates is made: where 'currentTT' is the currently observed TT, and 'correction = min(1, max(0, 1 - (time - currentTime) / beta))' The rule is that correction decreases linearly from 1 (when 'time = currentTime') to 0 (when 'time = currentTime + beta' For 'time > currentTime + beta' correction is 0, whereas if 'time < currentTime' it is 1. If beta is sufficiently large, 'beta >> 0', only the currently observed TT is used. -->
		<param name="travelTimeEstimationBeta" value="0.0" />
	</module>
	<module name="facilities" >
		<!-- This defines how facilities should be created. Possible values: none fromFile setInScenario onePerActivityLinkInPlansFile onePerActivityLinkInPlansFileExceptWhenCoordinatesAreGiven onePerActivityLocationInPlansFile  -->
		<param name="facilitiesSource" value="none" />
		<!-- A prefix to be used for auto-generated IDs. -->
		<param name="idPrefix" value="f_auto_" />
		<!-- The Coordinates Reference System in which the coordinates are expressed in the input file. At import, the coordinates will be converted to the coordinate system defined in "global", and willbe converted back at export. If not specified, no conversion happens. -->
		<param name="inputCRS" value="null" />
		<param name="inputFacilitiesFile" value="null" />
		<param name="inputFacilityAttributesFile" value="null" />
		<param name="insistingOnUsingDeprecatedFacilitiesAttributeFile" value="false" />
	</module>
	<module name="global" >
		<param name="coordinateSystem" value="Atlantis" />
		<param name="defaultDelimiter" value=";" />
		<param name="insistingOnDeprecatedConfigVersion" value="true" />
		<!-- "global" number of threads.  This number is used, e.g., for replanning, but NOT in QSim.  This can typically be set to as many cores as you have available, or possibly even slightly more. -->
		<param name="numberOfThreads" value="2" />
		<param name="randomSeed" value="4711" />
	</module>
	<module name="hermes" >
		<!-- Simulation End Time -->
		<param name="endTime" value="30:00:00" />
		<param name="flowCapacityFactor" value="1.0" />
		<param name="mainMode" value="car" />
		<param name="storageCapacityFactor" value="1.0" />
		<!-- time in seconds.  Time after which the frontmost vehicle on a link is called `stuck' if it does not move. Set to Integer.MAX_VALUE to disable this behavior -->
		<param name="stuckTime" value="10" />
		<!-- treats PT as deterministic. PT vehicles will run with a steady speed. Should be used with separate network layers for PT and other network modes. -->
		<param name="useDeterministicPt" value="false" />
	</module>
	<module name="households" >
		<param name="inputFile" value="null" />
		<param name="inputHouseholdAttributesFile" value="null" />
		<param name="insistingOnUsingDeprecatedHouseholdsAttributeFile" value="false" />
	</module>
	<module name="linkStats" >
		<!-- Specifies over how many iterations the link volumes should be averaged that are used for the link statistics. Use 1 or 0 to only use the link volumes of a single iteration. This values cannot be larger than the value specified for writeLinkStatsInterval -->
		<param name="averageLinkStatsOverIterations" value="5" />
		<!-- Specifies how often the link stats should be calculated and written. Use 0 to disable the generation of link stats. -->
		<param name="writeLinkStatsInterval" value="50" />
	</module>
	<module name="multiModeTaxi" >
		<parameterset type="taxi" >
			<!-- Specifies whether the simulation should interrupt if not all requests were performed when an interation ends. Otherwise, a warning is given. True by default. -->
			<param name="breakIfNotAllRequestsServed" value="false" />
			<!-- If true, the startLink is changed to last link in the current schedule, so the taxi starts the next day at the link where it stopped operating the day before. False by default. -->
			<param name="changeStartLinkToLastLinkInSchedule" value="false" />
			<!-- If false, the drop-off location remains unknown to the optimizer and scheduler until the end of pickup. False by default. -->
			<param name="destinationKnown" value="false" />
			<!-- If true, detailed hourly taxi stats are dumped after each iteration. False by default. -->
			<param name="detailedStats" value="true" />
			<!-- Dropoff duration. Must be positive. -->
			<param name="dropoffDuration" value="60.0" />
			<!-- Max wait time to find a taxi, in seconds. During this time the request stays unplanned and waits for a free vehicle. If the limit is exceeded, then the req is considered failed. -->
			<param name="maxSearchDuration" value="65.0" />
			<!-- Mode which will be handled by PassengerEngine and VrpOptimizer (passengers'/customers' perspective) -->
			<param name="mode" value="taxi" />
			<!-- Number of threads used for parallel computation of paths (occupied drive tasks). 4-6 threads is usually enough. It's recommended to specify a higher number than that if possible - of course, threads will probably be not 100% busy. Default value is the number of cores available to JVM -->
			<param name="numberOfThreads" value="8" />
			<!-- If true, vehicles are (GPS-like) monitored while moving. This helps in getting more accurate estimates on the time of arrival. Online tracking is necessary for vehicle diversion. False by default. -->
			<param name="onlineVehicleTracker" value="false" />
			<!-- Pickup duration. Must be positive. -->
			<param name="pickupDuration" value="120.0" />
			<!-- Time it takes the driver to accept the request. Should be less than maxSearchDuration, otherwise the req expires before the driver accepts. -->
			<param name="requestAcceptanceDelay" value="0.0" />
			<!-- An XML file specifying the taxi fleet. The file format according to dvrp_vehicles_v1.dtd. If not provided, the vehicle specifications will be created from matsim vehicle file or provided via a custom binding. See FleetModule. -->
			<param name="taxisFile" value="vehicles_1.xml" />
			<!-- If true, writes time profiles of vehicle statuses (i.e. current task type) and the number of unplanned requests are written to a text file (taxi_status_time_profiles) and saved as plots. False by default. -->
			<param name="timeProfiles" value="true" />
			<!-- Limit the operation of vehicles to links (of the 'dvrp_routing' network) with 'allowedModes' containing this 'mode'. For backward compatibility, the value is set to false by default -- this means that the vehicles are allowed to operate on all links of the 'dvrp_routing' network. The 'dvrp_routing' is defined by DvrpConfigGroup.networkModes) -->
			<param name="useModeFilteredSubnetwork" value="false" />
			<!-- If true, vehicles can be diverted during empty trips. Requires online tracking. False by default. -->
			<param name="vehicleDiversion" value="false" />
			<parameterset type="RuleBasedTaxiOptimizer" >
				<!-- The side length of square zones used in zonal registers of idle vehicles and open requests. The default value is 1000 m. This value is good for urban areas. For large areas with sparsely distributed taxis and low taxi demand, you may consider using a bigger cell size. On the other hand, if 'nearestRequestsLimit' or 'nearestVehiclesLimit' are very low, a smaller cell size may work better. -->
				<param name="cellSize" value="1000.0" />
				<!-- Optimisation goal, one of: MIN_WAIT_TIME (aka 'nearest idle taxi', a request-initiated dispatch), MIN_PICKUP_TIME (aka 'nearest open request', a vehicle-initiated dispatch), DEMAND_SUPPLY_EQUIL (aka 'demand-supply balancing' or 'nearest idle taxi/nearest open request'; switches between two modes depending on the demand-supply balance). The default and recommended value is DEMAND_SUPPLY_EQUIL. See: M. Maciejewski, J. Bischoff, K. Nagel: An assignment-based approach to efficient real-time city-scale taxi dispatching. IEEE Intelligent Systems, 2016. -->
				<param name="goal" value="DEMAND_SUPPLY_EQUIL" />
				<!-- Limits the number of open requests considered during a vehicle-initiated dispatch to 'nearestRequestsLimit' nearest to a given location using pre-calculated distances between zone centroids. Used to speed up computations. Values 20 to 40 make a good trade-off between computational speed and quality of results. To turn off this feature - specify a sufficiently big number (not recommended). The default value is 30. -->
				<param name="nearestRequestsLimit" value="30" />
				<!-- Limits the number of idle vehicles considered during a request-initiated dispatch to 'nearestVehiclesLimit' nearest to a given location using pre-calculated distances between zone centroids. Used to speed up computations. Values 20 to 40 make a good trade-off between computational speed and quality of results. To turn off this feature - specify a sufficiently big number (not recommended). The default value is 30. -->
				<param name="nearestVehiclesLimit" value="30" />
				<!-- Specifies how often the reoptimization algorithm is executed. Must be a positive integer value. Smaller values mean lower reaction time. However, algorithms that find more than 1 taxi-request matching in each run, such as AssignmentTaxiOptimizer, may produce better results if new requests are buffered over a longer period, e.g. 10 or 30 seconds. Therefore, the default value is algorithm dependent. -->
				<param name="reoptimizationTimeStep" value="1" />
			</parameterset>
		</parameterset>
	</module>
	<module name="network" >
		<!-- The Coordinates Reference System in which the coordinates are expressed in the input file. At import, the coordinates will be converted to the coordinate system defined in "global", and willbe converted back at export. If not specified, no conversion happens. -->
		<param name="inputCRS" value="null" />
		<param name="inputChangeEventsFile" value="null" />
		<param name="inputNetworkFile" value="network.xml" />
		<param name="laneDefinitionsFile" value="null" />
		<param name="timeVariantNetwork" value="false" />
	</module>
	<module name="parallelEventHandling" >
		<!-- Estimated number of events during mobsim run. An optional optimization hint for the framework. -->
		<param name="estimatedNumberOfEvents" value="null" />
		<!-- Size of the events Queue. Increase for very large scenarios -->
		<param name="eventsQueueSize" value="131072" />
		<!-- Number of threads for parallel events handler. _null_ means the framework decides by itself. 0 is currently not possible. -->
		<param name="numberOfThreads" value="null" />
		<!-- If enabled, each event handler is assigned to its own thread. Note that enabling this feature disabled the numberOfThreads option! This feature is still experimental! -->
		<param name="oneThreadPerHandler" value="false" />
		<!-- If enabled, it is ensured that all events that are created during a time step of the mobility simulation are processed before the next time step is simulated. E.g. neccessary when within-day replanning is used. -->
		<param name="synchronizeOnSimSteps" value="true" />
	</module>
	<module name="planCalcScore" >
		<!-- logit model scale parameter. default: 1.  Has name and default value for historical reasons (see Bryan Raney's phd thesis). -->
		<param name="BrainExpBeta" value="1.0" />
		<param name="PathSizeLogitBeta" value="1.0" />
		<!-- fraction of iterations at which MSA score averaging is started. The matsim theory department suggests to use this together with switching off choice set innovation (where a similar switch exists), but it has not been tested yet. -->
		<param name="fractionOfIterationsToStartScoreMSA" value="null" />
		<!-- new_score = (1-learningRate)*old_score + learningRate * score_from_mobsim.  learning rates close to zero emulate score averaging, but slow down initial convergence -->
		<param name="learningRate" value="1.0" />
		<!-- There used to be a plateau between duration=0 and duration=zeroUtilityDuration. This caused durations to evolve to zero once they were below zeroUtilityDuration, causing problems.  Only use this switch if you need to be backwards compatible with some old results.  (changed nov'13) -->
		<param name="usingOldScoringBelowZeroUtilityDuration" value="false" />
		<!-- write a plans file in each iteration directory which contains what each agent actually did, and the score it received. -->
		<param name="writeExperiencedPlans" value="false" />
		<parameterset type="scoringParameters" >
			<param name="earlyDeparture" value="-0.0" />
			<param name="lateArrival" value="-18.0" />
			<param name="marginalUtilityOfMoney" value="1.0" />
			<param name="performing" value="6.0" />
			<param name="subpopulation" value="null" />
			<param name="utilityOfLineSwitch" value="-1.0" />
			<param name="waiting" value="-0.0" />
			<param name="waitingPt" value="-6.0" />
			<parameterset type="activityParams" >
				<param name="activityType" value="car interaction" />
				<param name="closingTime" value="undefined" />
				<param name="earliestEndTime" value="undefined" />
				<param name="latestStartTime" value="undefined" />
				<param name="minimalDuration" value="undefined" />
				<param name="openingTime" value="undefined" />
				<param name="priority" value="1.0" />
				<param name="scoringThisActivityAtAll" value="false" />
				<!-- typical duration of activity.  needs to be defined and non-zero.  in sec. -->
				<param name="typicalDuration" value="undefined" />
				<!-- method to compute score at typical duration.  Options: | uniform | relative | Use uniform for backwards compatibility (all activities same score; higher proba to drop long acts). -->
				<param name="typicalDurationScoreComputation" value="relative" />
			</parameterset>
			<parameterset type="activityParams" >
				<param name="activityType" value="pt interaction" />
				<param name="closingTime" value="undefined" />
				<param name="earliestEndTime" value="undefined" />
				<param name="latestStartTime" value="undefined" />
				<param name="minimalDuration" value="undefined" />
				<param name="openingTime" value="undefined" />
				<param name="priority" value="1.0" />
				<param name="scoringThisActivityAtAll" value="false" />
				<param name="typicalDuration" value="undefined" />
				<param name="typicalDurationScoreComputation" value="relative" />
			</parameterset>
			<parameterset type="activityParams" >
				<param name="activityType" value="bike interaction" />
				<param name="closingTime" value="undefined" />
				<param name="earliestEndTime" value="undefined" />
				<param name="latestStartTime" value="undefined" />
				<param name="minimalDuration" value="undefined" />
				<param name="openingTime" value="undefined" />
				<param name="priority" value="1.0" />
				<param name="scoringThisActivityAtAll" value="false" />
				<param name="typicalDuration" value="undefined" />
				<param name="typicalDurationScoreComputation" value="relative" />
			</parameterset>
			<parameterset type="activityParams" >
				<param name="activityType" value="drt interaction" />
				<param name="closingTime" value="undefined" />
				<param name="earliestEndTime" value="undefined" />
				<param name="latestStartTime" value="undefined" />
				<param name="minimalDuration" value="undefined" />
				<param name="openingTime" value="undefined" />
				<param name="priority" value="1.0" />
				<param name="scoringThisActivityAtAll" value="false" />
				<param name="typicalDuration" value="undefined" />
				<param name="typicalDurationScoreComputation" value="relative" />
			</parameterset>
			<parameterset type="activityParams" >
				<param name="activityType" value="taxi interaction" />
				<param name="closingTime" value="undefined" />
				<param name="earliestEndTime" value="undefined" />
				<param name="latestStartTime" value="undefined" />
				<param name="minimalDuration" value="undefined" />
				<param name="openingTime" value="undefined" />
				<param name="priority" value="1.0" />
				<param name="scoringThisActivityAtAll" value="false" />
				<param name="typicalDuration" value="undefined" />
				<param name="typicalDurationScoreComputation" value="relative" />
			</parameterset>
			<parameterset type="activityParams" >
				<param name="activityType" value="other interaction" />
				<param name="closingTime" value="undefined" />
				<param name="earliestEndTime" value="undefined" />
				<param name="latestStartTime" value="undefined" />
				<param name="minimalDuration" value="undefined" />
				<param name="openingTime" value="undefined" />
				<param name="priority" value="1.0" />
				<param name="scoringThisActivityAtAll" value="false" />
				<param name="typicalDuration" value="undefined" />
				<param name="typicalDurationScoreComputation" value="relative" />
			</parameterset>
			<parameterset type="activityParams" >
				<param name="activityType" value="walk interaction" />
				<param name="closingTime" value="undefined" />
				<param name="earliestEndTime" value="undefined" />
				<param name="latestStartTime" value="undefined" />
				<param name="minimalDuration" value="undefined" />
				<param name="openingTime" value="undefined" />
				<param name="priority" value="1.0" />
				<param name="scoringThisActivityAtAll" value="false" />
				<param name="typicalDuration" value="undefined" />
				<param name="typicalDurationScoreComputation" value="relative" />
			</parameterset>
			<parameterset type="activityParams" >
				<param name="activityType" value="dummy" />
				<param name="closingTime" value="undefined" />
				<param name="earliestEndTime" value="undefined" />
				<param name="latestStartTime" value="undefined" />
				<param name="minimalDuration" value="undefined" />
				<param name="openingTime" value="undefined" />
				<param name="priority" value="1.0" />
				<param name="scoringThisActivityAtAll" value="true" />
				<param name="typicalDuration" value="24:00:00" />
				<param name="typicalDurationScoreComputation" value="relative" />
			</parameterset>
			<parameterset type="activityParams" >
				<param name="activityType" value="ride interaction" />
				<param name="closingTime" value="undefined" />
				<param name="earliestEndTime" value="undefined" />
				<param name="latestStartTime" value="undefined" />
				<param name="minimalDuration" value="undefined" />
				<param name="openingTime" value="undefined" />
				<param name="priority" value="1.0" />
				<param name="scoringThisActivityAtAll" value="false" />
				<param name="typicalDuration" value="undefined" />
				<param name="typicalDurationScoreComputation" value="relative" />
			</parameterset>
			<parameterset type="modeParams" >
				<!-- [utils] alternative-specific constant.  Normally per trip, but that is probably buggy for multi-leg trips. -->
				<param name="constant" value="0.0" />
				<!-- [unit_of_money/day] Fixed cost of mode, per day. -->
				<param name="dailyMonetaryConstant" value="0.0" />
				<!-- [utils] daily utility constant. default=0 to be backwards compatible -->
				<param name="dailyUtilityConstant" value="0.0" />
				<!-- [utils/m] utility of traveling (e.g. walking or driving) per m, normally negative.  this is on top of the time (dis)utility. -->
				<param name="marginalUtilityOfDistance_util_m" value="0.0" />
				<!-- [utils/hr] additional marginal utility of traveling.  normally negative.  this comes on top of the opportunity cost of time -->
				<param name="marginalUtilityOfTraveling_util_hr" value="-6.0" />
				<param name="mode" value="car" />
				<!-- [unit_of_money/m] conversion of distance into money. Normally negative. -->
				<param name="monetaryDistanceRate" value="0.0" />
			</parameterset>
			<parameterset type="modeParams" >
				<param name="constant" value="0.0" />
				<param name="dailyMonetaryConstant" value="0.0" />
				<param name="dailyUtilityConstant" value="0.0" />
				<param name="marginalUtilityOfDistance_util_m" value="0.0" />
				<param name="marginalUtilityOfTraveling_util_hr" value="-6.0" />
				<param name="mode" value="pt" />
				<param name="monetaryDistanceRate" value="0.0" />
			</parameterset>
			<parameterset type="modeParams" >
				<param name="constant" value="0.0" />
				<param name="dailyMonetaryConstant" value="0.0" />
				<param name="dailyUtilityConstant" value="0.0" />
				<param name="marginalUtilityOfDistance_util_m" value="0.0" />
				<param name="marginalUtilityOfTraveling_util_hr" value="-6.0" />
				<param name="mode" value="walk" />
				<param name="monetaryDistanceRate" value="0.0" />
			</parameterset>
			<parameterset type="modeParams" >
				<param name="constant" value="0.0" />
				<param name="dailyMonetaryConstant" value="0.0" />
				<param name="dailyUtilityConstant" value="0.0" />
				<param name="marginalUtilityOfDistance_util_m" value="0.0" />
				<param name="marginalUtilityOfTraveling_util_hr" value="-6.0" />
				<param name="mode" value="bike" />
				<param name="monetaryDistanceRate" value="0.0" />
			</parameterset>
			<parameterset type="modeParams" >
				<param name="constant" value="0.0" />
				<param name="dailyMonetaryConstant" value="0.0" />
				<param name="dailyUtilityConstant" value="0.0" />
				<param name="marginalUtilityOfDistance_util_m" value="0.0" />
				<param name="marginalUtilityOfTraveling_util_hr" value="-6.0" />
				<param name="mode" value="ride" />
				<param name="monetaryDistanceRate" value="0.0" />
			</parameterset>
			<parameterset type="modeParams" >
				<param name="constant" value="0.0" />
				<param name="dailyMonetaryConstant" value="0.0" />
				<param name="dailyUtilityConstant" value="0.0" />
				<param name="marginalUtilityOfDistance_util_m" value="0.0" />
				<param name="marginalUtilityOfTraveling_util_hr" value="-6.0" />
				<param name="mode" value="other" />
				<param name="monetaryDistanceRate" value="0.0" />
			</parameterset>
			<parameterset type="modeParams" >
				<param name="constant" value="0.0" />
				<param name="dailyMonetaryConstant" value="0.0" />
				<param name="dailyUtilityConstant" value="0.0" />
				<param name="marginalUtilityOfDistance_util_m" value="0.0" />
				<param name="marginalUtilityOfTraveling_util_hr" value="-6.0" />
				<param name="mode" value="taxi" />
				<param name="monetaryDistanceRate" value="0.0" />
			</parameterset>
		</parameterset>
	</module>
	<module name="plans" >
		<!-- String: minOfDurationAndEndTime tryEndTimeThenDuration endTimeOnly. Anything besides minOfDurationAndEndTime will internally use a different (simpler) version of the TimeAllocationMutator. -->
		<param name="activityDurationInterpretation" value="tryEndTimeThenDuration" />
		<!-- Possible values: reject, useMainModeIdentifier -->
		<param name="handlingOfPlansWithoutRoutingMode" value="reject" />
		<!-- The Coordinates Reference System in which the coordinates are expressed in the input file. At import, the coordinates will be converted to the coordinate system defined in "global", and willbe converted back at export. If not specified, no conversion happens. -->
		<param name="inputCRS" value="null" />
		<param name="inputPersonAttributesFile" value="null" />
		<param name="inputPlansFile" value="population_1.xml" />
		<param name="insistingOnUsingDeprecatedPersonAttributeFile" value="false" />
		<!-- Defines how routes are stored in memory. Currently supported: LinkNetworkRoute, CompressedNetworkRoute. -->
		<param name="networkRouteType" value="LinkNetworkRoute" />
		<!-- (not tested) will remove plan attributes that are presumably not used, such as activityStartTime. default=false. Use with Caution! -->
		<param name="removingUnnecessaryPlanAttributes" value="false" />
		<!-- Defines how departure times are interpreted in rerouting applications. If set to 'ignoreDelays', the departure time of a trip when routing along a plan will always be the nominal (plan-based) activity end time. If set to 'shiftActivityEndTimes', routing along a plan will accumulate travel times and shift activity end times if necessary -->
		<param name="tripDurationHandling" value="ignoreDelays" />
	</module>
	<module name="planscalcroute" >
		<!-- Defines how access and egress to main mode is simulated. Either of [none, accessEgressModeToLink, walkConstantTimeToLink, accessEgressModeToLinkPlusTimeConstant], Current default=none which means no access or egress trips are simulated. -->
		<param name="accessEgressType" value="none" />
		<!-- Some typical teleportation routing params are set by default, such as for walk and bike.  Setting this switch to "true" will clear them.  Note that this will also clear settings for helper modes such as for non_network_walk -->
		<param name="clearDefaultTeleportedModeParams" value="false" />
		<!-- All the modes for which the router is supposed to generate network routes (like car) -->
		<param name="networkModes" value="car" />
		<!-- strength of the randomness for the utility of money in routing under toll.  Leads to Pareto-optimal route with randomly drawn money-vs-other-attributes tradeoff. Technically the width parameter of a log-normal distribution. 3.0 seems to be a good value.  -->
		<param name="routingRandomness" value="3.0" />
		<parameterset type="teleportedModeParameters" >
			<param name="beelineDistanceFactor" value="1.3" />
			<param name="mode" value="bike" />
			<!-- Free-speed factor for a teleported mode. Travel time = teleportedModeFreespeedFactor * <freespeed car travel time>. Insert a line like this for every such mode. Please do not set teleportedModeFreespeedFactor as well as teleportedModeSpeed for the same mode, but if you do, +teleportedModeFreespeedFactor wins over teleportedModeSpeed. -->
			<param name="teleportedModeFreespeedFactor" value="null" />
			<!-- Speed for a teleported mode. Travel time = (<beeline distance> * beelineDistanceFactor) / teleportedModeSpeed. Insert a line like this for every such mode. -->
			<param name="teleportedModeSpeed" value="4.166666666666667" />
		</parameterset>
		<parameterset type="teleportedModeParameters" >
			<param name="beelineDistanceFactor" value="1.3" />
			<param name="mode" value="walk" />
			<param name="teleportedModeFreespeedFactor" value="null" />
			<param name="teleportedModeSpeed" value="0.8333333333333333" />
		</parameterset>
		<parameterset type="teleportedModeParameters" >
			<param name="beelineDistanceFactor" value="1.3" />
			<param name="mode" value="non_network_walk" />
			<param name="teleportedModeFreespeedFactor" value="null" />
			<param name="teleportedModeSpeed" value="0.8333333333333333" />
		</parameterset>
		<parameterset type="teleportedModeParameters" >
			<param name="beelineDistanceFactor" value="1.3" />
			<param name="mode" value="ride" />
			<param name="teleportedModeFreespeedFactor" value="1.0" />
			<param name="teleportedModeSpeed" value="null" />
		</parameterset>
		<parameterset type="teleportedModeParameters" >
			<param name="beelineDistanceFactor" value="1.3" />
			<param name="mode" value="pt" />
			<param name="teleportedModeFreespeedFactor" value="2.0" />
			<param name="teleportedModeSpeed" value="null" />
		</parameterset>
	</module>
	<module name="ptCounts" >
		<!-- factor by which to re-scale the simulated values.  necessary when simulation runs with something different from 100%.  needs to be adapted manually -->
		<param name="countsScaleFactor" value="1.0" />
		<!-- distance to distanceFilterCenterNode to include counting stations. The unit of distance is the Euclidean distance implied by the coordinate system -->
		<param name="distanceFilter" value="null" />
		<!-- node id for center node of distance filter -->
		<param name="distanceFilterCenterNode" value="null" />
		<!-- input file containing the alighting (getting off) counts for pt -->
		<param name="inputAlightCountsFile" value="null" />
		<!-- input file containing the boarding (getting on) counts for pt -->
		<param name="inputBoardCountsFile" value="null" />
		<!-- input file containing the occupancy counts for pt -->
		<param name="inputOccupancyCountsFile" value="null" />
		<!-- possible values: `html', `kml', `txt', `all' -->
		<param name="outputformat" value="null" />
		<!-- every how many iterations (starting with 0) counts comparisons are generated -->
		<param name="ptCountsInterval" value="10" />
	</module>
	<module name="qsim" >
		<param name="endTime" value="undefined" />
		<!-- If set to withLinkAttributes snapshots will only be generated for links which include generateSnapshotForLink as attribute key. Default is no filtering. -->
		<param name="filterSnapshots" value="no" />
		<param name="flowCapacityFactor" value="1.0" />
		<!-- decides if waiting vehicles enter the network after or before the already driving vehicles were moved. Default: false -->
		<param name="insertingWaitingVehiclesBeforeDrivingVehicles" value="true" />
		<!-- If link dynamics is set as SeepageQ, set to false if all seep modes should perform seepage. Default is true (better option). -->
		<param name="isRestrictingSeepage" value="true" />
		<!-- If link dynamics is set as SeepageQ, set to true if seep mode do not consumes any space on the link. Default is false. -->
		<param name="isSeepModeStorageFree" value="false" />
		<!-- default: FIFO; options: FIFO PassingQ SeepageQ -->
		<param name="linkDynamics" value="FIFO" />
		<!-- The (initial) width of the links of the network. Use positive floating point values. This is used only for visualisation. -->
		<param name="linkWidth" value="30.0" />
		<!-- [comma-separated list] Defines which modes are congested modes. Technically, these are the modes that the departure handler of the netsimengine handles.  Effective cell size, effective lane width, flow capacity factor, and storage capacity factor need to be set with diligence.  Need to be vehicular modes to make sense. -->
		<param name="mainMode" value="car" />
		<!-- Shortens a link in the visualization, i.e. its start and end point are moved into towards the center. Does not affect traffic flow.  -->
		<param name="nodeOffset" value="0.0" />
		<!-- Number of threads used for the QSim.  Note that this setting is independent from the "global" threads setting.  In contrast to earlier versions, the non-parallel special version is no longer there. -->
		<param name="numberOfThreads" value="1" />
		<!-- Boolean. `true': stuck vehicles are removed, aborting the plan; `false': stuck vehicles are forced into the next link. `false' is probably the better choice. -->
		<param name="removeStuckVehicles" value="false" />
		<!-- If link dynamics is set as SeepageQ, set a seep mode. Default is bike. -->
		<param name="seepMode" value="bike" />
		<!-- Possible values: minOfEndtimeAndMobsimFinished, onlyUseEndtime -->
		<param name="simEndtimeInterpretation" value="null" />
		<!-- Options: maxOfStarttimeAndEarliestActivityEnd onlyUseStarttime  -->
		<param name="simStarttimeInterpretation" value="onlyUseStarttime" />
		<!-- snapshotStyle. One of: equiDist queue withHoles withHolesAndShowHoles kinematicWaves  -->
		<param name="snapshotStyle" value="queue" />
		<param name="snapshotperiod" value="00:00:00" />
		<param name="startTime" value="undefined" />
		<param name="storageCapacityFactor" value="1.0" />
		<!-- time in seconds.  Time after which the frontmost vehicle on a link is called `stuck' if it does not move. -->
		<param name="stuckTime" value="10.0" />
		<param name="timeStepSize" value="00:00:01" />
		<!-- options: queue withHoles kinematicWaves  -->
		<param name="trafficDynamics" value="queue" />
		<!-- Set this parameter to true if lanes should be used, false if not. -->
		<param name="useLanes" value="false" />
		<!-- If a route does not reference a vehicle, agents will use the vehicle with the same id as their own. -->
		<param name="usePersonIdForMissingVehicleId" value="true" />
		<!-- If false, the qsim accumulates fractional flows up to one flow unit in every time step.  If true, flows are updated only if an agent wants to enter the link or an agent is added to buffer. Default is true. -->
		<param name="usingFastCapacityUpdate" value="true" />
		<!-- Defines what happens if an agent wants to depart, but the specified vehicle is not available. One of: teleport wait exception  -->
		<param name="vehicleBehavior" value="teleport" />
		<!-- If vehicles should all be the same default vehicle, or come from the vehicles file, or something else.  Possible values:  defaultVehicle modeVehicleTypesFromVehiclesData fromVehiclesData -->
		<param name="vehiclesSource" value="defaultVehicle" />
	</module>
	<module name="strategy" >
		<!-- the external executable will be called with a config file as argument.  This is the pathname to a possible skeleton config, to which additional information will be added.  Can be null. -->
		<param name="ExternalExeConfigTemplate" value="null" />
		<!-- time out value (in seconds) after which matsim will consider the external strategy as failed -->
		<param name="ExternalExeTimeOut" value="3600" />
		<!-- root directory for temporary files generated by the external executable. Provided as a service; I don't think this is used by MATSim. -->
		<param name="ExternalExeTmpFileRootDir" value="null" />
		<!-- fraction of iterations where innovative strategies are switched off.  Something like 0.8 should be good.  E.g. if you run from iteration 400 to iteration 500, innovation is switched off at iteration 480 -->
		<param name="fractionOfIterationsToDisableInnovation" value="Infinity" />
		<!-- maximum number of plans per agent.  ``0'' means ``infinity''.  Currently (2010), ``5'' is a good number -->
		<param name="maxAgentPlanMemorySize" value="1" />
		<!-- strategyName of PlanSelector for plans removal.  Possible defaults: WorstPlanSelector SelectRandom SelectExpBetaForRemoval ChangeExpBetaForRemoval PathSizeLogitSelectorForRemoval . The current default, WorstPlanSelector is not a good choice from a discrete choice theoretical perspective. Alternatives, however, have not been systematically tested. kai, feb'12 -->
		<param name="planSelectorForRemoval" value="WorstPlanSelector" />
		<parameterset type="strategysettings" >
			<!-- iteration after which strategy will be disabled.  most useful for ``innovative'' strategies (new routes, new times, ...). Normally, better use fractionOfIterationsToDisableInnovation -->
			<param name="disableAfterIteration" value="-1" />
			<!-- path to external executable (if applicable) -->
			<param name="executionPath" value="null" />
			<!-- strategyName of strategy.  Possible default names: SelectRandom BestScore KeepLastSelected ChangeExpBeta SelectExpBeta SelectPathSizeLogit      (selectors), ReRouteTimeAllocationMutatorTimeAllocationMutator_ReRouteChangeSingleTripModeChangeTripModeSubtourModeChoice (innovative strategies). -->
			<param name="strategyName" value="KeepLastSelected" />
			<!-- subpopulation to which the strategy applies. "null" refers to the default population, that is, the set of persons for which no explicit subpopulation is defined (ie no subpopulation attribute) -->
			<param name="subpopulation" value="null" />
			<!-- weight of a strategy: for each agent, a strategy will be selected with a probability proportional to its weight -->
			<param name="weight" value="1.0" />
		</parameterset>
	</module>
	<module name="subtourModeChoice" >
		<!-- Only for backwards compatibility.  Defines if only trips from modes list should change mode, or all trips.  Options: fromAllModesToSpecifiedModes fromSpecifiedModesToSpecifiedModes  -->
		<param name="behavior" value="fromSpecifiedModesToSpecifiedModes" />
		<!-- Defines the chain-based modes, seperated by commas -->
		<param name="chainBasedModes" value="car,bike" />
		<!-- Defines whether car availability must be considered or not. A agent has no car only if it has no license, or never access to a car -->
		<param name="considerCarAvailability" value="false" />
		<!-- Defines all the modes available, including chain-based modes, seperated by commas -->
		<param name="modes" value="car,pt,bike,walk" />
	</module>
	<module name="transit" >
		<!-- The Coordinates Reference System in which the coordinates are expressed in the input file. At import, the coordinates will be converted to the coordinate system defined in "global", and willbe converted back at export. If not specified, no conversion happens. -->
		<param name="inputScheduleCRS" value="null" />
		<param name="insistingOnUsingDeprecatedAttributeFiles" value="false" />
		<!-- The type of transit routing algorithm used, may have the values: [DijkstraBased, SwissRailRaptor] -->
		<param name="routingAlgorithmType" value="SwissRailRaptor" />
		<!-- Optional input file containing additional attributes for transit lines, stored as ObjectAttributes. -->
		<param name="transitLinesAttributesFile" value="null" />
		<!-- Comma-separated list of transportation modes that are handled as transit. Defaults to 'pt'. -->
		<param name="transitModes" value="pt" />
		<!-- Input file containing the transit schedule to be simulated. -->
		<param name="transitScheduleFile" value="null" />
		<!-- Optional input file containing additional attributes for transit stop facilities, stored as ObjectAttributes. -->
		<param name="transitStopsAttributesFile" value="null" />
		<!-- Set this parameter to true if transit should be simulated, false if not. -->
		<param name="useTransit" value="false" />
		<param name="usingTransitInMobsim" value="true" />
		<!-- Input file containing the vehicles used by the departures in the transit schedule. -->
		<param name="vehiclesFile" value="null" />
	</module>
	<module name="transitRouter" >
		<!-- additional time the router allocates when a line switch happens. Can be interpreted as a 'safety' time that agents need to safely transfer from one line to another -->
		<param name="additionalTransferTime" value="0.0" />
		<!-- Factor with which direct walk generalized cost is multiplied before it is compared to the pt generalized cost.  Set to a very high value to reduce direct walk results. -->
		<param name="directWalkFactor" value="1.0" />
		<!-- step size to increase searchRadius if no stops are found -->
		<param name="extensionRadius" value="200.0" />
		<!-- maximum beeline distance between stops that agents could transfer to by walking -->
		<param name="maxBeelineWalkConnectionDistance" value="100.0" />
		<!-- the radius in which stop locations are searched, given a start or target coordinate -->
		<param name="searchRadius" value="1000.0" />
	</module>
	<module name="travelTimeCalculator" >
		<!-- (only for backwards compatibility; only used if separateModes==false && + filterModes==true)  Transport modes that will be respected by the travel time collector. 'car' is default which includes also buses from the pt simulation module. -->
		<param name="analyzedModes" value="car" />
		<param name="calculateLinkToLinkTravelTimes" value="false" />
		<param name="calculateLinkTravelTimes" value="true" />
		<!-- (only for backwards compatiblity; only used if separateModes==false)  Only modes included in analyzedModes are included. -->
		<param name="filterModes" value="false" />
		<!-- The lenght (in sec) of the time period that is splited into time bins; an additional time bin is created to aggregate all travel times collected after maxTime -->
		<param name="maxTime" value="108000" />
		<!-- (only for backwards compatibility) If false, link travel times are measured and aggregated over all vehicles using the link. -->
		<param name="separateModes" value="true" />
		<!-- How to deal with congested time bins that have no link entry events. `optimistic' assumes free speed (too optimistic); 'experimental_LastMile' is experimental and probably too pessimistic. -->
		<param name="travelTimeAggregator" value="optimistic" />
		<!-- The size of the time bin (in sec) into which the link travel times are aggregated for the router -->
		<param name="travelTimeBinSize" value="900" />
		<!-- possible values: TravelTimeCalculatorArray TravelTimeCalculatorHashMap  -->
		<param name="travelTimeCalculator" value="TravelTimeCalculatorArray" />
		<!-- How to deal with link entry times at different positions during the time bin. Currently supported: average, linearinterpolation -->
		<param name="travelTimeGetter" value="average" />
	</module>
	<module name="vehicles" >
		<param name="vehiclesFile" value="null" />
	</module>
	<module name="vspExperimental" >
		<!-- (do not use except of you have to) There was a problem with pt interaction scoring.  Some people solved it by overwriting the parameters of the pt interaction activity type.  Doing this now throws an Exception.  If you still insist on doing this, set the following to true. -->
		<param name="isAbleToOverwritePtInteractionParams" value="false" />
		<param name="isGeneratingBoardingDeniedEvent" value="false" />
		<!-- if an approximation of the opportunity cost of time is included into the radius calculation for location choice.`true' will be faster, but it is an approximation.  Default is `true'; `false' is available for backwards compatibility. -->
		<param name="isUsingOpportunityCostOfTimeForLocationChoice" value="true" />
		<param name="logitScaleParamForPlansRemoval" value="1.0" />
		<!-- Options: | ignore | info | warn | abort | .  When violating VSP defaults, this results in nothing, logfile infos, logfile warnings, or aborts.  Members of VSP should use `abort' or talk to kai. -->
		<param name="vspDefaultsCheckingLevel" value="ignore" />
		<!-- if true then writes output_events in output directory.  default is `false'. Will only work when lastIteration is multiple of events writing interval -->
		<param name="writingOutputEvents" value="true" />
	</module>

</config>

2022-03-25T09:46:13,152  INFO ControlerUtils:84 Complete config dump done.
2022-03-25T09:46:13,152  INFO ControlerUtils:85 Checking consistency of config...
2022-03-25T09:46:13,153  INFO PlanCalcScoreConfigGroup$ScoringParameterSet:1554 NO OPENING OR CLOSING TIMES DEFINED!

There is no activity type that has an opening *and* closing time (or opening time and late penalty) defined.
This usually means that the activity chains can be shifted by an arbitrary
number of hours without having an effect on the score of the plans, and thus
resulting in wrong results / traffic patterns.
If you are using MATSim without time adaptation, you can ignore this warning.


2022-03-25T09:46:13,153  INFO VspConfigConsistencyCheckerImpl:63 NOT running vsp config consistency check because vsp defaults checking level is set to IGNORE
2022-03-25T09:46:13,157  WARN DvrpBenchmarkConfigConsistencyChecker:41 FlowCapFactor should be large enough (e.g. 100) to obtain deterministic (fixed) travel times
2022-03-25T09:46:13,158  WARN DvrpBenchmarkConfigConsistencyChecker:45 StorageCapFactor should be large enough (e.g. 100) to obtain deterministic (fixed) travel times
2022-03-25T09:46:13,158  INFO ControlerUtils:87 Checking consistency of config done.
2022-03-25T09:46:13,161  WARN PrepareForSimImpl:228 'usePersonIdForMissingVehicleId' is deprecated. It will be removed soon.
2022-03-25T09:46:13,167  INFO Counter:69 [VehiclesImpl] added vehicle # 1
2022-03-25T09:46:13,168  INFO Counter:69 [VehiclesImpl] added vehicle # 2
2022-03-25T09:46:13,180  INFO PreProcessDijkstra:118 nodes in dead ends: 0 (total nodes: 18). Done in 1 ms
2022-03-25T09:46:13,180  WARN PreProcessEuclidean:59 There are links with stored length smaller than their Euclidean distance in this network. Thus, A* cannot guarantee to calculate the least-cost paths between two nodes.
2022-03-25T09:46:13,180  INFO PreProcessLandmarks:112 Putting landmarks on network...
2022-03-25T09:46:13,181  INFO LandmarkerPieSlices:96 Filling sectors...
2022-03-25T09:46:13,182  INFO LandmarkerPieSlices:107 Refining landmarks...
2022-03-25T09:46:13,182  INFO LandmarkerPieSlices:109 done
2022-03-25T09:46:13,184  INFO PreProcessLandmarks:115 done in 1 ms
2022-03-25T09:46:13,184  INFO PreProcessLandmarks:117 Initializing landmarks data
2022-03-25T09:46:13,186  INFO PreProcessLandmarks:129 Calculating distance from each node to each of the 16 landmarks using 2 threads...
2022-03-25T09:46:13,196  INFO PreProcessLandmarks:139 wait for landmarks Calculator to finish...
2022-03-25T09:46:13,200  INFO PreProcessLandmarks:163 done in 12 ms
2022-03-25T09:46:13,208  INFO NetworkImpl:163  node # 1
2022-03-25T09:46:13,209  INFO NetworkImpl:163  node # 4
2022-03-25T09:46:13,209  INFO NetworkImpl:163  node # 16
2022-03-25T09:46:13,210  INFO NetworkImpl:159  link # 1
2022-03-25T09:46:13,210  INFO NetworkImpl:159  link # 4
2022-03-25T09:46:13,210  INFO NetworkImpl:159  link # 16
2022-03-25T09:46:13,211  WARN RandomizingTimeDistanceTravelDisutilityFactory:112 There will be no routing randomness. The randomization of the travel disutility requires the monetary distance rate to be different than zero. Continuing anyway.
2022-03-25T09:46:13,211  WARN RandomizingTimeDistanceTravelDisutilityFactory:117 There will be no routing randomness. The randomization of the travel disutility requires the travel time cost rate to be different than zero. Continuing anyway.
2022-03-25T09:46:13,213  INFO RandomizingTimeDistanceTravelDisutilityFactory:85  sigma: 3.0; resulting normalization: 0.011108996538242306
2022-03-25T09:46:13,214  INFO PreProcessDijkstra:118 nodes in dead ends: 0 (total nodes: 9). Done in 0 ms
2022-03-25T09:46:13,214  WARN PreProcessEuclidean:59 There are links with stored length smaller than their Euclidean distance in this network. Thus, A* cannot guarantee to calculate the least-cost paths between two nodes.
2022-03-25T09:46:13,214  INFO PreProcessLandmarks:112 Putting landmarks on network...
2022-03-25T09:46:13,214  INFO LandmarkerPieSlices:96 Filling sectors...
2022-03-25T09:46:13,215  INFO LandmarkerPieSlices:163 There is no node in sector 0!
2022-03-25T09:46:13,216  INFO LandmarkerPieSlices:163 There is no node in sector 1!
2022-03-25T09:46:13,216  INFO LandmarkerPieSlices:163 There is no node in sector 2!
2022-03-25T09:46:13,216  INFO LandmarkerPieSlices:163 There is no node in sector 3!
2022-03-25T09:46:13,216  INFO LandmarkerPieSlices:163 There is no node in sector 4!
2022-03-25T09:46:13,216  INFO LandmarkerPieSlices:163 There is no node in sector 5!
2022-03-25T09:46:13,216  INFO LandmarkerPieSlices:163 There is no node in sector 6!
2022-03-25T09:46:13,216  INFO LandmarkerPieSlices:163 There is no node in sector 7!
2022-03-25T09:46:13,216  INFO LandmarkerPieSlices:163 There is no node in sector 8!
2022-03-25T09:46:13,216  INFO LandmarkerPieSlices:163 There is no node in sector 9!
2022-03-25T09:46:13,216  INFO LandmarkerPieSlices:163 There is no node in sector 10!
2022-03-25T09:46:13,217  INFO LandmarkerPieSlices:163 There is no node in sector 11!
2022-03-25T09:46:13,217  INFO LandmarkerPieSlices:163 There is no node in sector 12!
2022-03-25T09:46:13,217  INFO LandmarkerPieSlices:163 There is no node in sector 13!
2022-03-25T09:46:13,217  INFO LandmarkerPieSlices:163 There is no node in sector 14!
2022-03-25T09:46:13,217  INFO LandmarkerPieSlices:100 Reducing number of landmarks from 16 to 1...
2022-03-25T09:46:13,217  INFO LandmarkerPieSlices:107 Refining landmarks...
2022-03-25T09:46:13,217  INFO LandmarkerPieSlices:109 done
2022-03-25T09:46:13,218  INFO PreProcessLandmarks:115 done in 3 ms
2022-03-25T09:46:13,218  INFO PreProcessLandmarks:117 Initializing landmarks data
2022-03-25T09:46:13,218  INFO PreProcessLandmarks:129 Calculating distance from each node to each of the 16 landmarks using 2 threads...
2022-03-25T09:46:13,218  INFO PreProcessLandmarks:139 wait for landmarks Calculator to finish...
2022-03-25T09:46:13,219  INFO PreProcessLandmarks:163 done in 1 ms
2022-03-25T09:46:13,232  INFO SpeedyALTData:51 find dead ends...
2022-03-25T09:46:13,233  INFO SpeedyALTData:132 calculate landmarks...
2022-03-25T09:46:13,239  INFO SpeedyALTData:173 calculate min travelcost...
2022-03-25T09:46:13,244  INFO RandomizingTimeDistanceTravelDisutilityFactory:85  sigma: 3.0; resulting normalization: 0.011108996538242306
2022-03-25T09:46:13,252  INFO Counter:69 [PersonPrepareForSim] handled person # 1
2022-03-25T09:46:13,252  INFO Counter:74 [PersonPrepareForSim] handled person # 2
2022-03-25T09:46:13,253  INFO AbstractController:133 ###################################################
2022-03-25T09:46:13,253  INFO AbstractController:134 ### ITERATION 0 BEGINS
2022-03-25T09:46:13,254  INFO ControlerListenerManagerImpl:145 calling notifyIterationStarts on org.matsim.core.replanning.ReplanningContextImpl
2022-03-25T09:46:13,254  INFO ControlerListenerManagerImpl:145 calling notifyIterationStarts on org.matsim.core.scoring.ScoringFunctionsForPopulation$$Lambda$255/0x0000000840356440
2022-03-25T09:46:13,263  INFO ControlerListenerManagerImpl:145 calling notifyIterationStarts on org.matsim.core.scoring.ExperiencedPlansServiceImpl$1
2022-03-25T09:46:13,263  INFO ControlerListenerManagerImpl:148 [it.0] all ControlerIterationStartsListeners called.
2022-03-25T09:46:13,264  INFO ControlerListenerManagerImpl:224 calling notifyBeforeMobsim on org.matsim.core.controler.corelisteners.EventsHandlingImpl
2022-03-25T09:46:13,264  INFO EventsManagerImpl:190 resetting Event-Handlers
2022-03-25T09:46:13,264  INFO EventsManagerImpl:197   org.matsim.core.scoring.ScoringFunctionsForPopulation
2022-03-25T09:46:13,264  INFO EventsManagerImpl:197   org.matsim.contrib.taxi.rides.ExpireOrderTest$1
2022-03-25T09:46:13,264  INFO EventsManagerImpl:197   org.matsim.testcases.utils.EventsCollector
2022-03-25T09:46:13,264  INFO EventsManagerImpl:197   org.matsim.contrib.taxi.analysis.TaxiEventSequenceCollector
2022-03-25T09:46:13,264  INFO EventsManagerImpl:197   org.matsim.contrib.dvrp.analysis.ExecutedScheduleCollector
2022-03-25T09:46:13,264  INFO EventsManagerImpl:197   org.matsim.contrib.util.stats.VehicleOccupancyProfileCalculator
2022-03-25T09:46:13,273  INFO EventsManagerImpl:197   org.matsim.contrib.util.stats.VehicleTaskProfileCalculator
2022-03-25T09:46:13,273  INFO EventsManagerImpl:197   org.matsim.core.scoring.EventsToLegsAndActivities
2022-03-25T09:46:13,273  INFO ControlerListenerManagerImpl:224 calling notifyBeforeMobsim on org.matsim.core.controler.corelisteners.PlansDumpingImpl
2022-03-25T09:46:13,274  INFO ControlerListenerManagerImpl:232 [it.0] all ControlerBeforeMobsimListeners called.
2022-03-25T09:46:13,275  INFO RandomizingTimeDistanceTravelDisutilityFactory:85  sigma: 3.0; resulting normalization: 0.011108996538242306
2022-03-25T09:46:13,275  INFO RandomizingTimeDistanceTravelDisutilityFactory:85  sigma: 3.0; resulting normalization: 0.011108996538242306
2022-03-25T09:46:13,276  INFO Counter:69 [PersonPrepareForSim] handled person # 1
2022-03-25T09:46:13,277  INFO Counter:69 [PersonPrepareForSim] handled person # 2
2022-03-25T09:46:13,278  INFO Counter:74 [PersonPrepareForSim] handled person # 2
2022-03-25T09:46:13,359  WARN DvrpVehicleImpl:56 CTudorache new DvrpVehicleImpl: DvrpVehicleImpl{id=taxi_vehicle_1, startLinkId=89, capacity=1, serviceBeginTime=0.0, serviceEndTime=1000.0}
2022-03-25T09:46:13,363  INFO SpeedyALTData:51 find dead ends...
2022-03-25T09:46:13,363  INFO SpeedyALTData:132 calculate landmarks...
2022-03-25T09:46:13,365  INFO SpeedyALTData:173 calculate min travelcost...
2022-03-25T09:46:13,377  INFO SpeedyALTData:51 find dead ends...
2022-03-25T09:46:13,378  INFO SpeedyALTData:132 calculate landmarks...
2022-03-25T09:46:13,381  INFO SpeedyALTData:173 calculate min travelcost...
2022-03-25T09:46:13,387  WARN TaxiActionCreator:60 CTudorache new TaxiActionCreator: org.matsim.contrib.taxi.vrpagent.TaxiActionCreator@4fb04a72
2022-03-25T09:46:13,388  INFO RandomizingTimeDistanceTravelDisutilityFactory:85  sigma: 3.0; resulting normalization: 0.011108996538242306
2022-03-25T09:46:13,410  INFO EventsManagerImpl:160 adding Event-Handler: org.matsim.contrib.dvrp.passenger.DefaultPassengerEngine
2022-03-25T09:46:13,410  INFO EventsManagerImpl:166   org.matsim.contrib.dvrp.passenger.PassengerEngine
2022-03-25T09:46:13,411  INFO EventsManagerImpl:166   org.matsim.contrib.dvrp.passenger.PassengerRequestRejectedEventHandler
2022-03-25T09:46:13,411  INFO EventsManagerImpl:227     > org.matsim.contrib.dvrp.passenger.PassengerRequestRejectedEvent
2022-03-25T09:46:13,411  INFO EventsManagerImpl:176 
2022-03-25T09:46:13,411  INFO EventsManagerImpl:160 adding Event-Handler: org.matsim.contrib.dvrp.passenger.DefaultPassengerEngine
2022-03-25T09:46:13,411  INFO EventsManagerImpl:166   org.matsim.contrib.dvrp.passenger.PassengerEngine
2022-03-25T09:46:13,411  INFO EventsManagerImpl:166   org.matsim.contrib.dvrp.passenger.PassengerRequestRejectedEventHandler
2022-03-25T09:46:13,411  INFO EventsManagerImpl:227     > org.matsim.contrib.dvrp.passenger.PassengerRequestRejectedEvent
2022-03-25T09:46:13,411  INFO EventsManagerImpl:176 
2022-03-25T09:46:13,413  INFO QSimProvider:122 Added MobsimEngine class org.matsim.core.mobsim.qsim.ActivityEngineDefaultImpl
2022-03-25T09:46:13,413  INFO QSimProvider:128 Added Activityhandler class org.matsim.core.mobsim.qsim.ActivityEngineDefaultImpl
2022-03-25T09:46:13,414  INFO QSimProvider:134 Added DepartureHandler class org.matsim.core.mobsim.qsim.qnetsimengine.VehicularDepartureHandler
2022-03-25T09:46:13,414  INFO QSimProvider:122 Added MobsimEngine class org.matsim.core.mobsim.qsim.qnetsimengine.QNetsimEngineWithThreadpool
2022-03-25T09:46:13,414  INFO QSimProvider:122 Added MobsimEngine class org.matsim.core.mobsim.qsim.DefaultTeleportationEngine
2022-03-25T09:46:13,415  INFO QSimProvider:134 Added DepartureHandler class org.matsim.core.mobsim.qsim.DefaultTeleportationEngine
2022-03-25T09:46:13,415  INFO QSimProvider:140 Added AgentSource class org.matsim.core.mobsim.qsim.agents.PopulationAgentSource
2022-03-25T09:46:13,415  INFO MobsimListenerManager:49 calling addQueueSimulationListener
2022-03-25T09:46:13,415  INFO MobsimListenerManager:53   assigned class org.matsim.core.mobsim.framework.listeners.MobsimListener to interface org.matsim.core.mobsim.framework.listeners.MobsimListener
2022-03-25T09:46:13,416  INFO MobsimListenerManager:53   assigned class org.matsim.core.mobsim.framework.listeners.MobsimListener to interface org.matsim.core.mobsim.qsim.messagequeueengine.MessageQueueEngine
2022-03-25T09:46:13,416  INFO MobsimListenerManager:53   assigned class org.matsim.core.mobsim.framework.listeners.MobsimListener to interface org.matsim.core.mobsim.framework.listeners.MobsimBeforeSimStepListener
2022-03-25T09:46:13,417  INFO QSimProvider:146 Added MobsimListener class org.matsim.core.mobsim.qsim.messagequeueengine.MessageQueueEngine
2022-03-25T09:46:13,417  INFO QSimProvider:122 Added MobsimEngine class org.matsim.contrib.dynagent.run.DynActivityEngine
2022-03-25T09:46:13,417  INFO QSimProvider:128 Added Activityhandler class org.matsim.contrib.dynagent.run.DynActivityEngine
2022-03-25T09:46:13,418  WARN EditTrips:121 no TransitStopAgentTracker found in qsim. Replanning of pt/transit legs will not work properly and will likely fail.
2022-03-25T09:46:13,418  INFO QSimProvider:122 Added MobsimEngine class org.matsim.core.mobsim.qsim.PreplanningEngine
2022-03-25T09:46:13,419  INFO QSimProvider:140 Added AgentSource class org.matsim.contrib.dvrp.vrpagent.VrpAgentSource
2022-03-25T09:46:13,419  INFO QSimProvider:122 Added MobsimEngine class org.matsim.contrib.dvrp.passenger.DefaultPassengerEngine
2022-03-25T09:46:13,419  INFO QSimProvider:134 Added DepartureHandler class org.matsim.contrib.dvrp.passenger.DefaultPassengerEngine
2022-03-25T09:46:13,419  INFO MobsimListenerManager:49 calling addQueueSimulationListener
2022-03-25T09:46:13,419  INFO MobsimListenerManager:53   assigned class org.matsim.core.mobsim.framework.listeners.MobsimListener to interface org.matsim.contrib.taxi.optimizer.TaxiOptimizer
2022-03-25T09:46:13,419  INFO MobsimListenerManager:53   assigned class org.matsim.core.mobsim.framework.listeners.MobsimListener to interface org.matsim.core.mobsim.framework.listeners.MobsimListener
2022-03-25T09:46:13,419  INFO MobsimListenerManager:53   assigned class org.matsim.core.mobsim.framework.listeners.MobsimListener to interface org.matsim.contrib.taxi.optimizer.rules.RuleBasedTaxiOptimizer
2022-03-25T09:46:13,419  INFO MobsimListenerManager:53   assigned class org.matsim.core.mobsim.framework.listeners.MobsimListener to interface org.matsim.contrib.taxi.optimizer.DefaultTaxiOptimizer
2022-03-25T09:46:13,419  INFO MobsimListenerManager:53   assigned class org.matsim.core.mobsim.framework.listeners.MobsimListener to interface org.matsim.core.mobsim.framework.listeners.MobsimBeforeSimStepListener
2022-03-25T09:46:13,419  INFO QSimProvider:146 Added MobsimListener class org.matsim.contrib.taxi.optimizer.rules.RuleBasedTaxiOptimizer
2022-03-25T09:46:13,419  INFO MobsimListenerManager:49 calling addQueueSimulationListener
2022-03-25T09:46:13,419  INFO MobsimListenerManager:53   assigned class org.matsim.core.mobsim.framework.listeners.MobsimListener to interface org.matsim.core.mobsim.framework.listeners.MobsimListener
2022-03-25T09:46:13,420  INFO MobsimListenerManager:53   assigned class org.matsim.core.mobsim.framework.listeners.MobsimListener to interface org.matsim.core.mobsim.framework.listeners.MobsimBeforeCleanupListener
2022-03-25T09:46:13,420  INFO MobsimListenerManager:53   assigned class org.matsim.core.mobsim.framework.listeners.MobsimListener to interface org.matsim.contrib.taxi.scheduler.TaxiScheduler
2022-03-25T09:46:13,420  INFO QSimProvider:146 Added MobsimListener class org.matsim.contrib.taxi.scheduler.TaxiScheduler
2022-03-25T09:46:13,420  INFO MobsimListenerManager:49 calling addQueueSimulationListener
2022-03-25T09:46:13,420  INFO MobsimListenerManager:53   assigned class org.matsim.core.mobsim.framework.listeners.MobsimListener to interface org.matsim.core.mobsim.framework.listeners.MobsimListener
2022-03-25T09:46:13,420  INFO MobsimListenerManager:53   assigned class org.matsim.core.mobsim.framework.listeners.MobsimListener to interface org.matsim.contrib.taxi.util.TaxiSimulationConsistencyChecker
2022-03-25T09:46:13,420  INFO MobsimListenerManager:53   assigned class org.matsim.core.mobsim.framework.listeners.MobsimListener to interface org.matsim.core.mobsim.framework.listeners.MobsimBeforeCleanupListener
2022-03-25T09:46:13,420  INFO QSimProvider:146 Added MobsimListener class org.matsim.contrib.taxi.util.TaxiSimulationConsistencyChecker
2022-03-25T09:46:13,426  INFO PopulationUtils:1140 adding scenario element for allpersons container
2022-03-25T09:46:13,426  INFO PopulationImpl:105  person # 1
2022-03-25T09:46:13,427  WARN VrpAgentLogic:61 CTudorache new VrpAgentLogic: org.matsim.contrib.dvrp.vrpagent.VrpAgentLogic@48a2db72
2022-03-25T09:46:13,429  INFO VehicleUtils:324 adding scenario element for allvehicles container
2022-03-25T09:46:13,429  INFO Counter:69 [VehiclesImpl] added vehicle # 1
2022-03-25T09:46:13,434  INFO AbstractQNetsimEngine:427 Assigned 18 nodes and 24 links to QSimEngineRunner #0
2022-03-25T09:46:13,443  WARN DefaultTaxiOptimizer:74 CTudorache notifyMobsimBeforeSimStep, simTime: 0.0, unplannedRequests.schedulable: #0, requiresReoptimization: false, reoptimisationTimeStep: 1, doUnscheduleAwaitingRequests: false
2022-03-25T09:46:13,444  INFO EventsManagerImpl:137  event # 1
2022-03-25T09:46:13,445  INFO AbstractQNetsimEngine:365 SIMULATION (QNetsimEngine) AT 00:00:00 : #links=0 #nodes=0
2022-03-25T09:46:13,448  INFO ExpireOrderTest$1:67 handleEvent: 	<event time="0.0" type="actend" person="passenger_1" link="41" actType="dummy"  />
2022-03-25T09:46:13,448  INFO ExpireOrderTest$1:67 handleEvent: 	<event time="0.0" type="departure" person="passenger_1" link="41" legMode="walk" computationalRoutingMode="taxi"  />
2022-03-25T09:46:13,449  INFO ExpireOrderTest$1:67 handleEvent: 	<event time="0.0" type="travelled" person="passenger_1" distance="0.0" mode="walk"  />
2022-03-25T09:46:13,449  INFO EventsManagerImpl:137  event # 4
2022-03-25T09:46:13,449  INFO ExpireOrderTest$1:67 handleEvent: 	<event time="0.0" type="arrival" person="passenger_1" link="41" legMode="walk"  />
2022-03-25T09:46:13,450  INFO ExpireOrderTest$1:67 handleEvent: 	<event time="0.0" type="actstart" person="passenger_1" link="41" x="0.0" y="500.0" actType="taxi interaction"  />
2022-03-25T09:46:13,450  INFO ExpireOrderTest$1:67 handleEvent: 	<event time="0.0" type="actend" person="passenger_1" link="41" x="0.0" y="500.0" actType="taxi interaction"  />
2022-03-25T09:46:13,451  INFO ExpireOrderTest$1:67 handleEvent: 	<event time="0.0" type="departure" person="passenger_1" link="41" legMode="taxi" computationalRoutingMode="taxi"  />
2022-03-25T09:46:13,452  INFO ExpireOrderTest$1:67 handleEvent: 	<event time="0.0" type="PassengerRequest submitted" person="passenger_1" mode="taxi" request="taxi_0" fromLink="41" toLink="36"  />
2022-03-25T09:46:13,468  WARN TaxiRequest:75 CTudorache new TaxiRequest: TaxiRequest{id=taxi_0, submissionTime=0.0, earliestStartTime=0.0, latestStartTime=65.0, passengerId=passenger_1, mode=taxi, fromLink=org.matsim.core.network.LinkImpl@484149eb[id=41][from_id=4][to_id=1][length=100.0][freespeed=15.0][capacity=100.0][permlanes=1.0][modes=[car], toLink=org.matsim.core.network.LinkImpl@327e5be5[id=36][from_id=3][to_id=6][length=100.0][freespeed=15.0][capacity=100.0][permlanes=1.0][modes=[car]}
2022-03-25T09:46:13,470  INFO ExpireOrderTest$1:67 handleEvent: 	<event time="0.0" type="actend" person="taxi_vehicle_1" link="89" actType="BeforeVrpSchedule"  />
2022-03-25T09:46:13,471  WARN AbstractTaskEvent:63 CTudorache new AbstractTaskEvent: 	<event time="0.0" type="dvrpTaskStarted" person="taxi_vehicle_1" link="89" dvrpVehicle="taxi_vehicle_1" taskType="STAY" taskIndex="0" dvrpMode="taxi"  />
2022-03-25T09:46:13,471  INFO ExpireOrderTest$1:67 handleEvent: 	<event time="0.0" type="dvrpTaskStarted" person="taxi_vehicle_1" link="89" dvrpVehicle="taxi_vehicle_1" taskType="STAY" taskIndex="0" dvrpMode="taxi"  />
2022-03-25T09:46:13,472  INFO ExpireOrderTest$1:67 handleEvent: 	<event time="0.0" type="actstart" person="taxi_vehicle_1" link="89" actType="TaxiStay"  />
2022-03-25T09:46:13,476  INFO QSim:553 SIMULATION (NEW QSim) AT 00:00:00 : #Veh=3 lost=0 simT=0.0s realT=0s; (s/r): 0.0
2022-03-25T09:46:13,477  WARN DefaultTaxiOptimizer:74 CTudorache notifyMobsimBeforeSimStep, simTime: 1.0, unplannedRequests.schedulable: #1, requiresReoptimization: true, reoptimisationTimeStep: 1, doUnscheduleAwaitingRequests: false
2022-03-25T09:46:13,481  WARN RuleBasedRequestInserter:81 CTudorache scheduleUnplannedRequests, goal: DEMAND_SUPPLY_EQUIL, awaitingReqCount: 1, idleTaxi: 1
2022-03-25T09:46:13,482  WARN RuleBasedRequestInserter:120 CTudorache scheduleUnplannedRequestsImpl #1
2022-03-25T09:46:13,483  WARN RuleBasedRequestInserter:138 CTudorache scheduleUnplannedRequestsImpl req: TaxiRequest{id=taxi_0, submissionTime=0.0, earliestStartTime=0.0, latestStartTime=65.0, passengerId=passenger_1, mode=taxi, fromLink=org.matsim.core.network.LinkImpl@484149eb[id=41][from_id=4][to_id=1][length=100.0][freespeed=15.0][capacity=100.0][permlanes=1.0][modes=[car], toLink=org.matsim.core.network.LinkImpl@327e5be5[id=36][from_id=3][to_id=6][length=100.0][freespeed=15.0][capacity=100.0][permlanes=1.0][modes=[car]}, selectedVehs: 
2022-03-25T09:46:13,484  WARN RuleBasedRequestInserter:140  - DvrpVehicleImpl{id=taxi_vehicle_1, startLinkId=89, capacity=1, serviceBeginTime=0.0, serviceEndTime=1000.0}
2022-03-25T09:46:13,486  WARN TaxiScheduleInquiry:91 CTudorache getEarliestIdleness veh: DvrpVehicleImpl{id=taxi_vehicle_1, startLinkId=89, capacity=1, serviceBeginTime=0.0, serviceEndTime=1000.0}, lastTask: TaxiStayTask{super=TaxiStayTask{taskType=TaxiTaskType{name=STAY, baseType=Optional[STAY]}, taskIdx=0, status=STARTED, beginTime=0.0, endTime=1000.0}, link=org.matsim.core.network.LinkImpl@4f379769[id=89][from_id=8][to_id=9][length=100.0][freespeed=15.0][capacity=100.0][permlanes=1.0][modes=[car]}
2022-03-25T09:46:13,486  WARN BestDispatchFinder:114 CTudorache multiSourceALT:
2022-03-25T09:46:13,491  WARN BestDispatchFinder:115  - from: [StartNode{node=[id=9][coord=[x=2000.0 | y=2000.0]][type=null][nof_inlinks=2][nof_outlinks=2], cost=7.666666666666667, time=2.0}]
2022-03-25T09:46:13,492  WARN BestDispatchFinder:116  - to: [id=4][coord=[x=0.0 | y=1000.0]][type=null][nof_inlinks=3][nof_outlinks=3]
2022-03-25T09:46:13,492  WARN BestDispatchFinder:118  - path: Path{from=[id=9][coord=[x=2000.0 | y=2000.0]][type=null][nof_inlinks=2][nof_outlinks=2], to=[id=4][coord=[x=0.0 | y=1000.0]][type=null][nof_inlinks=3][nof_outlinks=3], travelTime=21.0, travelCost=28.666666666666668}
2022-03-25T09:46:13,492  WARN BestDispatchFinder:125  - bestVehicle: DvrpVehicleImpl{id=taxi_vehicle_1, startLinkId=89, capacity=1, serviceBeginTime=0.0, serviceEndTime=1000.0}
2022-03-25T09:46:13,493  WARN TaxiScheduleInquiry:91 CTudorache getEarliestIdleness veh: DvrpVehicleImpl{id=taxi_vehicle_1, startLinkId=89, capacity=1, serviceBeginTime=0.0, serviceEndTime=1000.0}, lastTask: TaxiStayTask{super=TaxiStayTask{taskType=TaxiTaskType{name=STAY, baseType=Optional[STAY]}, taskIdx=0, status=STARTED, beginTime=0.0, endTime=1000.0}, link=org.matsim.core.network.LinkImpl@4f379769[id=89][from_id=8][to_id=9][length=100.0][freespeed=15.0][capacity=100.0][permlanes=1.0][modes=[car]}
2022-03-25T09:46:13,493  WARN BestDispatchFinder:127  - bestDeparture: [link=org.matsim.core.network.LinkImpl@4f379769[id=89][from_id=8][to_id=9][length=100.0][freespeed=15.0][capacity=100.0][permlanes=1.0][modes=[car]][time=1.0]
2022-03-25T09:46:13,494  WARN RuleBasedRequestInserter:144 CTudorache best dispatch: Dispatch{vehicle=DvrpVehicleImpl{id=taxi_vehicle_1, startLinkId=89, capacity=1, serviceBeginTime=0.0, serviceEndTime=1000.0}, dest=TaxiRequest{id=taxi_0, submissionTime=0.0, earliestStartTime=0.0, latestStartTime=65.0, passengerId=passenger_1, mode=taxi, fromLink=org.matsim.core.network.LinkImpl@484149eb[id=41][from_id=4][to_id=1][length=100.0][freespeed=15.0][capacity=100.0][permlanes=1.0][modes=[car], toLink=org.matsim.core.network.LinkImpl@327e5be5[id=36][from_id=3][to_id=6][length=100.0][freespeed=15.0][capacity=100.0][permlanes=1.0][modes=[car]}, path=VrpPathWithTravelDataImpl{departureTime=1.0, travelTime=29.0, links=5, linkTTs=[2.0, 7.0, 7.0, 7.0, 7.0]}}
2022-03-25T09:46:13,495  WARN DriverConfirmationRegistry:28 CTudorache addDriverConfirmation: DriverConfirmation{request=TaxiRequest{id=taxi_0, submissionTime=0.0, earliestStartTime=0.0, latestStartTime=65.0, passengerId=passenger_1, mode=taxi, fromLink=org.matsim.core.network.LinkImpl@484149eb[id=41][from_id=4][to_id=1][length=100.0][freespeed=15.0][capacity=100.0][permlanes=1.0][modes=[car], toLink=org.matsim.core.network.LinkImpl@327e5be5[id=36][from_id=3][to_id=6][length=100.0][freespeed=15.0][capacity=100.0][permlanes=1.0][modes=[car]}, vehicle=DvrpVehicleImpl{id=taxi_vehicle_1, startLinkId=89, capacity=1, serviceBeginTime=0.0, serviceEndTime=1000.0}, endTime=1.0, isComplete=false, isAccepted=false}
2022-03-25T09:46:13,495  WARN DefaultTaxiOptimizer:74 CTudorache notifyMobsimBeforeSimStep, simTime: 2.0, unplannedRequests.schedulable: #1, requiresReoptimization: true, reoptimisationTimeStep: 1, doUnscheduleAwaitingRequests: false
2022-03-25T09:46:13,495  WARN DriverConfirmationRegistry:71 CTudorache DriverConfirmation complete: DriverConfirmation{request=TaxiRequest{id=taxi_0, submissionTime=0.0, earliestStartTime=0.0, latestStartTime=65.0, passengerId=passenger_1, mode=taxi, fromLink=org.matsim.core.network.LinkImpl@484149eb[id=41][from_id=4][to_id=1][length=100.0][freespeed=15.0][capacity=100.0][permlanes=1.0][modes=[car], toLink=org.matsim.core.network.LinkImpl@327e5be5[id=36][from_id=3][to_id=6][length=100.0][freespeed=15.0][capacity=100.0][permlanes=1.0][modes=[car]}, vehicle=DvrpVehicleImpl{id=taxi_vehicle_1, startLinkId=89, capacity=1, serviceBeginTime=0.0, serviceEndTime=1000.0}, endTime=1.0, isComplete=true, isAccepted=true}
2022-03-25T09:46:13,496  WARN RuleBasedRequestInserter:81 CTudorache scheduleUnplannedRequests, goal: DEMAND_SUPPLY_EQUIL, awaitingReqCount: 1, idleTaxi: 1
2022-03-25T09:46:13,496  WARN RuleBasedRequestInserter:120 CTudorache scheduleUnplannedRequestsImpl #1
2022-03-25T09:46:13,496  WARN RuleBasedRequestInserter:160 CTudorache scheduleUnplannedRequestsImpl, waitingDriverConfirmation: DriverConfirmation{request=TaxiRequest{id=taxi_0, submissionTime=0.0, earliestStartTime=0.0, latestStartTime=65.0, passengerId=passenger_1, mode=taxi, fromLink=org.matsim.core.network.LinkImpl@484149eb[id=41][from_id=4][to_id=1][length=100.0][freespeed=15.0][capacity=100.0][permlanes=1.0][modes=[car], toLink=org.matsim.core.network.LinkImpl@327e5be5[id=36][from_id=3][to_id=6][length=100.0][freespeed=15.0][capacity=100.0][permlanes=1.0][modes=[car]}, vehicle=DvrpVehicleImpl{id=taxi_vehicle_1, startLinkId=89, capacity=1, serviceBeginTime=0.0, serviceEndTime=1000.0}, endTime=1.0, isComplete=true, isAccepted=true}
2022-03-25T09:46:13,496  WARN DriverConfirmationRegistry:40 CTudorache removeDriverConfirmation: DriverConfirmation{request=TaxiRequest{id=taxi_0, submissionTime=0.0, earliestStartTime=0.0, latestStartTime=65.0, passengerId=passenger_1, mode=taxi, fromLink=org.matsim.core.network.LinkImpl@484149eb[id=41][from_id=4][to_id=1][length=100.0][freespeed=15.0][capacity=100.0][permlanes=1.0][modes=[car], toLink=org.matsim.core.network.LinkImpl@327e5be5[id=36][from_id=3][to_id=6][length=100.0][freespeed=15.0][capacity=100.0][permlanes=1.0][modes=[car]}, vehicle=DvrpVehicleImpl{id=taxi_vehicle_1, startLinkId=89, capacity=1, serviceBeginTime=0.0, serviceEndTime=1000.0}, endTime=1.0, isComplete=true, isAccepted=true}
2022-03-25T09:46:13,496  WARN TaxiScheduler:124 CTudorache scheduleRequest vehicle: DvrpVehicleImpl{id=taxi_vehicle_1, startLinkId=89, capacity=1, serviceBeginTime=0.0, serviceEndTime=1000.0}, req: TaxiRequest{id=taxi_0, submissionTime=0.0, earliestStartTime=0.0, latestStartTime=65.0, passengerId=passenger_1, mode=taxi, fromLink=org.matsim.core.network.LinkImpl@484149eb[id=41][from_id=4][to_id=1][length=100.0][freespeed=15.0][capacity=100.0][permlanes=1.0][modes=[car], toLink=org.matsim.core.network.LinkImpl@327e5be5[id=36][from_id=3][to_id=6][length=100.0][freespeed=15.0][capacity=100.0][permlanes=1.0][modes=[car]}
2022-03-25T09:46:13,497  WARN TaxiScheduler:161 CTudorache divertOrAppendDrive lastTask: TaxiStayTask{super=TaxiStayTask{taskType=TaxiTaskType{name=STAY, baseType=Optional[STAY]}, taskIdx=0, status=STARTED, beginTime=0.0, endTime=1000.0}, link=org.matsim.core.network.LinkImpl@4f379769[id=89][from_id=8][to_id=9][length=100.0][freespeed=15.0][capacity=100.0][permlanes=1.0][modes=[car]}
[...]
2022-03-25T09:46:13,720  WARN DefaultTaxiOptimizer:74 CTudorache notifyMobsimBeforeSimStep, simTime: 947.0, unplannedRequests.schedulable: #0, requiresReoptimization: false, reoptimisationTimeStep: 1, doUnscheduleAwaitingRequests: false
2022-03-25T09:46:13,720  WARN DefaultTaxiOptimizer:74 CTudorache notifyMobsimBeforeSimStep, simTime: 948.0, unplannedRequests.schedulable: #0, requiresReoptimization: false, reoptimisationTimeStep: 1, doUnscheduleAwaitingRequests: false
2022-03-25T09:46:13,721  WARN DefaultTaxiOptimizer:74 CTudorache notifyMobsimBeforeSimStep, simTime: 949.0, unplannedRequests.schedulable: #0, requiresReoptimization: false, reoptimisationTimeStep: 1, doUnscheduleAwaitingRequests: false
2022-03-25T09:46:13,721  WARN DefaultTaxiOptimizer:74 CTudorache notifyMobsimBeforeSimStep, simTime: 950.0, unplannedRequests.schedulable: #0, requiresReoptimization: false, reoptimisationTimeStep: 1, doUnscheduleAwaitingRequests: false
2022-03-25T09:46:13,721  WARN DefaultTaxiOptimizer:74 CTudorache notifyMobsimBeforeSimStep, simTime: 951.0, unplannedRequests.schedulable: #0, requiresReoptimization: false, reoptimisationTimeStep: 1, doUnscheduleAwaitingRequests: false
2022-03-25T09:46:13,721  WARN DefaultTaxiOptimizer:74 CTudorache notifyMobsimBeforeSimStep, simTime: 952.0, unplannedRequests.schedulable: #0, requiresReoptimization: false, reoptimisationTimeStep: 1, doUnscheduleAwaitingRequests: false
2022-03-25T09:46:13,721  WARN DefaultTaxiOptimizer:74 CTudorache notifyMobsimBeforeSimStep, simTime: 953.0, unplannedRequests.schedulable: #0, requiresReoptimization: false, reoptimisationTimeStep: 1, doUnscheduleAwaitingRequests: false
2022-03-25T09:46:13,721  WARN DefaultTaxiOptimizer:74 CTudorache notifyMobsimBeforeSimStep, simTime: 954.0, unplannedRequests.schedulable: #0, requiresReoptimization: false, reoptimisationTimeStep: 1, doUnscheduleAwaitingRequests: false
2022-03-25T09:46:13,721  WARN DefaultTaxiOptimizer:74 CTudorache notifyMobsimBeforeSimStep, simTime: 955.0, unplannedRequests.schedulable: #0, requiresReoptimization: false, reoptimisationTimeStep: 1, doUnscheduleAwaitingRequests: false
2022-03-25T09:46:13,721  WARN DefaultTaxiOptimizer:74 CTudorache notifyMobsimBeforeSimStep, simTime: 956.0, unplannedRequests.schedulable: #0, requiresReoptimization: false, reoptimisationTimeStep: 1, doUnscheduleAwaitingRequests: false
2022-03-25T09:46:13,721  WARN DefaultTaxiOptimizer:74 CTudorache notifyMobsimBeforeSimStep, simTime: 957.0, unplannedRequests.schedulable: #0, requiresReoptimization: false, reoptimisationTimeStep: 1, doUnscheduleAwaitingRequests: false
2022-03-25T09:46:13,722  WARN DefaultTaxiOptimizer:74 CTudorache notifyMobsimBeforeSimStep, simTime: 958.0, unplannedRequests.schedulable: #0, requiresReoptimization: false, reoptimisationTimeStep: 1, doUnscheduleAwaitingRequests: false
2022-03-25T09:46:13,722  WARN DefaultTaxiOptimizer:74 CTudorache notifyMobsimBeforeSimStep, simTime: 959.0, unplannedRequests.schedulable: #0, requiresReoptimization: false, reoptimisationTimeStep: 1, doUnscheduleAwaitingRequests: false
2022-03-25T09:46:13,722  WARN DefaultTaxiOptimizer:74 CTudorache notifyMobsimBeforeSimStep, simTime: 960.0, unplannedRequests.schedulable: #0, requiresReoptimization: false, reoptimisationTimeStep: 1, doUnscheduleAwaitingRequests: false
2022-03-25T09:46:13,722  WARN DefaultTaxiOptimizer:74 CTudorache notifyMobsimBeforeSimStep, simTime: 961.0, unplannedRequests.schedulable: #0, requiresReoptimization: false, reoptimisationTimeStep: 1, doUnscheduleAwaitingRequests: false
2022-03-25T09:46:13,722  WARN DefaultTaxiOptimizer:74 CTudorache notifyMobsimBeforeSimStep, simTime: 962.0, unplannedRequests.schedulable: #0, requiresReoptimization: false, reoptimisationTimeStep: 1, doUnscheduleAwaitingRequests: false
2022-03-25T09:46:13,722  WARN DefaultTaxiOptimizer:74 CTudorache notifyMobsimBeforeSimStep, simTime: 963.0, unplannedRequests.schedulable: #0, requiresReoptimization: false, reoptimisationTimeStep: 1, doUnscheduleAwaitingRequests: false
2022-03-25T09:46:13,722  WARN DefaultTaxiOptimizer:74 CTudorache notifyMobsimBeforeSimStep, simTime: 964.0, unplannedRequests.schedulable: #0, requiresReoptimization: false, reoptimisationTimeStep: 1, doUnscheduleAwaitingRequests: false
2022-03-25T09:46:13,722  WARN DefaultTaxiOptimizer:74 CTudorache notifyMobsimBeforeSimStep, simTime: 965.0, unplannedRequests.schedulable: #0, requiresReoptimization: false, reoptimisationTimeStep: 1, doUnscheduleAwaitingRequests: false
2022-03-25T09:46:13,723  WARN DefaultTaxiOptimizer:74 CTudorache notifyMobsimBeforeSimStep, simTime: 966.0, unplannedRequests.schedulable: #0, requiresReoptimization: false, reoptimisationTimeStep: 1, doUnscheduleAwaitingRequests: false
2022-03-25T09:46:13,723  WARN DefaultTaxiOptimizer:74 CTudorache notifyMobsimBeforeSimStep, simTime: 967.0, unplannedRequests.schedulable: #0, requiresReoptimization: false, reoptimisationTimeStep: 1, doUnscheduleAwaitingRequests: false
2022-03-25T09:46:13,723  WARN DefaultTaxiOptimizer:74 CTudorache notifyMobsimBeforeSimStep, simTime: 968.0, unplannedRequests.schedulable: #0, requiresReoptimization: false, reoptimisationTimeStep: 1, doUnscheduleAwaitingRequests: false
2022-03-25T09:46:13,723  WARN DefaultTaxiOptimizer:74 CTudorache notifyMobsimBeforeSimStep, simTime: 969.0, unplannedRequests.schedulable: #0, requiresReoptimization: false, reoptimisationTimeStep: 1, doUnscheduleAwaitingRequests: false
2022-03-25T09:46:13,723  WARN DefaultTaxiOptimizer:74 CTudorache notifyMobsimBeforeSimStep, simTime: 970.0, unplannedRequests.schedulable: #0, requiresReoptimization: false, reoptimisationTimeStep: 1, doUnscheduleAwaitingRequests: false
2022-03-25T09:46:13,723  WARN DefaultTaxiOptimizer:74 CTudorache notifyMobsimBeforeSimStep, simTime: 971.0, unplannedRequests.schedulable: #0, requiresReoptimization: false, reoptimisationTimeStep: 1, doUnscheduleAwaitingRequests: false
2022-03-25T09:46:13,723  WARN DefaultTaxiOptimizer:74 CTudorache notifyMobsimBeforeSimStep, simTime: 972.0, unplannedRequests.schedulable: #0, requiresReoptimization: false, reoptimisationTimeStep: 1, doUnscheduleAwaitingRequests: false
2022-03-25T09:46:13,723  WARN DefaultTaxiOptimizer:74 CTudorache notifyMobsimBeforeSimStep, simTime: 973.0, unplannedRequests.schedulable: #0, requiresReoptimization: false, reoptimisationTimeStep: 1, doUnscheduleAwaitingRequests: false
2022-03-25T09:46:13,723  WARN DefaultTaxiOptimizer:74 CTudorache notifyMobsimBeforeSimStep, simTime: 974.0, unplannedRequests.schedulable: #0, requiresReoptimization: false, reoptimisationTimeStep: 1, doUnscheduleAwaitingRequests: false
2022-03-25T09:46:13,724  WARN DefaultTaxiOptimizer:74 CTudorache notifyMobsimBeforeSimStep, simTime: 975.0, unplannedRequests.schedulable: #0, requiresReoptimization: false, reoptimisationTimeStep: 1, doUnscheduleAwaitingRequests: false
2022-03-25T09:46:13,724  WARN DefaultTaxiOptimizer:74 CTudorache notifyMobsimBeforeSimStep, simTime: 976.0, unplannedRequests.schedulable: #0, requiresReoptimization: false, reoptimisationTimeStep: 1, doUnscheduleAwaitingRequests: false
2022-03-25T09:46:13,724  WARN DefaultTaxiOptimizer:74 CTudorache notifyMobsimBeforeSimStep, simTime: 977.0, unplannedRequests.schedulable: #0, requiresReoptimization: false, reoptimisationTimeStep: 1, doUnscheduleAwaitingRequests: false
2022-03-25T09:46:13,724  WARN DefaultTaxiOptimizer:74 CTudorache notifyMobsimBeforeSimStep, simTime: 978.0, unplannedRequests.schedulable: #0, requiresReoptimization: false, reoptimisationTimeStep: 1, doUnscheduleAwaitingRequests: false
2022-03-25T09:46:13,724  WARN DefaultTaxiOptimizer:74 CTudorache notifyMobsimBeforeSimStep, simTime: 979.0, unplannedRequests.schedulable: #0, requiresReoptimization: false, reoptimisationTimeStep: 1, doUnscheduleAwaitingRequests: false
2022-03-25T09:46:13,724  WARN DefaultTaxiOptimizer:74 CTudorache notifyMobsimBeforeSimStep, simTime: 980.0, unplannedRequests.schedulable: #0, requiresReoptimization: false, reoptimisationTimeStep: 1, doUnscheduleAwaitingRequests: false
2022-03-25T09:46:13,724  WARN DefaultTaxiOptimizer:74 CTudorache notifyMobsimBeforeSimStep, simTime: 981.0, unplannedRequests.schedulable: #0, requiresReoptimization: false, reoptimisationTimeStep: 1, doUnscheduleAwaitingRequests: false
2022-03-25T09:46:13,724  WARN DefaultTaxiOptimizer:74 CTudorache notifyMobsimBeforeSimStep, simTime: 982.0, unplannedRequests.schedulable: #0, requiresReoptimization: false, reoptimisationTimeStep: 1, doUnscheduleAwaitingRequests: false
2022-03-25T09:46:13,725  WARN DefaultTaxiOptimizer:74 CTudorache notifyMobsimBeforeSimStep, simTime: 983.0, unplannedRequests.schedulable: #0, requiresReoptimization: false, reoptimisationTimeStep: 1, doUnscheduleAwaitingRequests: false
2022-03-25T09:46:13,725  WARN DefaultTaxiOptimizer:74 CTudorache notifyMobsimBeforeSimStep, simTime: 984.0, unplannedRequests.schedulable: #0, requiresReoptimization: false, reoptimisationTimeStep: 1, doUnscheduleAwaitingRequests: false
2022-03-25T09:46:13,725  WARN DefaultTaxiOptimizer:74 CTudorache notifyMobsimBeforeSimStep, simTime: 985.0, unplannedRequests.schedulable: #0, requiresReoptimization: false, reoptimisationTimeStep: 1, doUnscheduleAwaitingRequests: false
2022-03-25T09:46:13,725  WARN DefaultTaxiOptimizer:74 CTudorache notifyMobsimBeforeSimStep, simTime: 986.0, unplannedRequests.schedulable: #0, requiresReoptimization: false, reoptimisationTimeStep: 1, doUnscheduleAwaitingRequests: false
2022-03-25T09:46:13,725  WARN DefaultTaxiOptimizer:74 CTudorache notifyMobsimBeforeSimStep, simTime: 987.0, unplannedRequests.schedulable: #0, requiresReoptimization: false, reoptimisationTimeStep: 1, doUnscheduleAwaitingRequests: false
2022-03-25T09:46:13,725  WARN DefaultTaxiOptimizer:74 CTudorache notifyMobsimBeforeSimStep, simTime: 988.0, unplannedRequests.schedulable: #0, requiresReoptimization: false, reoptimisationTimeStep: 1, doUnscheduleAwaitingRequests: false
2022-03-25T09:46:13,725  WARN DefaultTaxiOptimizer:74 CTudorache notifyMobsimBeforeSimStep, simTime: 989.0, unplannedRequests.schedulable: #0, requiresReoptimization: false, reoptimisationTimeStep: 1, doUnscheduleAwaitingRequests: false
2022-03-25T09:46:13,725  WARN DefaultTaxiOptimizer:74 CTudorache notifyMobsimBeforeSimStep, simTime: 990.0, unplannedRequests.schedulable: #0, requiresReoptimization: false, reoptimisationTimeStep: 1, doUnscheduleAwaitingRequests: false
2022-03-25T09:46:13,725  WARN DefaultTaxiOptimizer:74 CTudorache notifyMobsimBeforeSimStep, simTime: 991.0, unplannedRequests.schedulable: #0, requiresReoptimization: false, reoptimisationTimeStep: 1, doUnscheduleAwaitingRequests: false
2022-03-25T09:46:13,726  WARN DefaultTaxiOptimizer:74 CTudorache notifyMobsimBeforeSimStep, simTime: 992.0, unplannedRequests.schedulable: #0, requiresReoptimization: false, reoptimisationTimeStep: 1, doUnscheduleAwaitingRequests: false
2022-03-25T09:46:13,726  WARN DefaultTaxiOptimizer:74 CTudorache notifyMobsimBeforeSimStep, simTime: 993.0, unplannedRequests.schedulable: #0, requiresReoptimization: false, reoptimisationTimeStep: 1, doUnscheduleAwaitingRequests: false
2022-03-25T09:46:13,726  WARN DefaultTaxiOptimizer:74 CTudorache notifyMobsimBeforeSimStep, simTime: 994.0, unplannedRequests.schedulable: #0, requiresReoptimization: false, reoptimisationTimeStep: 1, doUnscheduleAwaitingRequests: false
2022-03-25T09:46:13,726  WARN DefaultTaxiOptimizer:74 CTudorache notifyMobsimBeforeSimStep, simTime: 995.0, unplannedRequests.schedulable: #0, requiresReoptimization: false, reoptimisationTimeStep: 1, doUnscheduleAwaitingRequests: false
2022-03-25T09:46:13,726  WARN DefaultTaxiOptimizer:74 CTudorache notifyMobsimBeforeSimStep, simTime: 996.0, unplannedRequests.schedulable: #0, requiresReoptimization: false, reoptimisationTimeStep: 1, doUnscheduleAwaitingRequests: false
2022-03-25T09:46:13,726  WARN DefaultTaxiOptimizer:74 CTudorache notifyMobsimBeforeSimStep, simTime: 997.0, unplannedRequests.schedulable: #0, requiresReoptimization: false, reoptimisationTimeStep: 1, doUnscheduleAwaitingRequests: false
2022-03-25T09:46:13,726  WARN DefaultTaxiOptimizer:74 CTudorache notifyMobsimBeforeSimStep, simTime: 998.0, unplannedRequests.schedulable: #0, requiresReoptimization: false, reoptimisationTimeStep: 1, doUnscheduleAwaitingRequests: false
2022-03-25T09:46:13,726  WARN DefaultTaxiOptimizer:74 CTudorache notifyMobsimBeforeSimStep, simTime: 999.0, unplannedRequests.schedulable: #0, requiresReoptimization: false, reoptimisationTimeStep: 1, doUnscheduleAwaitingRequests: false
2022-03-25T09:46:13,726  WARN DefaultTaxiOptimizer:74 CTudorache notifyMobsimBeforeSimStep, simTime: 1000.0, unplannedRequests.schedulable: #0, requiresReoptimization: false, reoptimisationTimeStep: 1, doUnscheduleAwaitingRequests: false
2022-03-25T09:46:13,727  INFO ExpireOrderTest$1:67 handleEvent: 	<event time="1000.0" type="actend" person="taxi_vehicle_1" link="36" actType="TaxiStay"  />
2022-03-25T09:46:13,727  WARN AbstractTaskEvent:63 CTudorache new AbstractTaskEvent: 	<event time="1000.0" type="dvrpTaskEnded" person="taxi_vehicle_1" link="36" dvrpVehicle="taxi_vehicle_1" taskType="STAY" taskIndex="5" dvrpMode="taxi"  />
2022-03-25T09:46:13,727  INFO ExpireOrderTest$1:67 handleEvent: 	<event time="1000.0" type="dvrpTaskEnded" person="taxi_vehicle_1" link="36" dvrpVehicle="taxi_vehicle_1" taskType="STAY" taskIndex="5" dvrpMode="taxi"  />
2022-03-25T09:46:13,728  INFO ExpireOrderTest$1:67 handleEvent: 	<event time="1000.0" type="actstart" person="taxi_vehicle_1" link="36" actType="AfterVrpSchedule"  />
2022-03-25T09:46:13,730  WARN TaxiSimulationConsistencyChecker:46 CTudorache seq INCOMPLETE: TaxiEventSequenceCollector:
 - mode: taxi
 - requests: #2
   . taxi_1: RequestEventSequence{submitted=	<event time="5.0" type="PassengerRequest submitted" person="passenger_2" mode="taxi" request="taxi_1" fromLink="47" toLink="96"  />, scheduled=null, pickedUp=null, droppedOff=null}
   . taxi_0: RequestEventSequence{submitted=	<event time="0.0" type="PassengerRequest submitted" person="passenger_1" mode="taxi" request="taxi_0" fromLink="41" toLink="36"  />, scheduled=	<event time="2.0" type="PassengerRequest scheduled" person="passenger_1" mode="taxi" request="taxi_0" vehicle="taxi_vehicle_1" pickupTime="151.0" dropoffTime="NaN"  />, pickedUp=	<event time="35.0" type="passenger picked up" person="passenger_1" mode="taxi" request="taxi_0" vehicle="taxi_vehicle_1"  />, droppedOff=	<event time="240.0" type="passenger dropped off" person="passenger_1" mode="taxi" request="taxi_0" vehicle="taxi_vehicle_1"  />}
2022-03-25T09:46:13,731  WARN TaxiSimulationConsistencyChecker:52 Taxi request not performed. Request time:	00:00:05	Passenger:	passenger_2
2022-03-25T09:46:13,733  INFO Gbl:191 Thread performance: Thread=class org.matsim.core.events.SimStepParallelEventsManagerImpl$ProcessEventsRunnable0  cpu-time=0.035447355sec
2022-03-25T09:46:13,734  INFO AbstractController$9:234 ### ITERATION 0 fires after mobsim event
2022-03-25T09:46:13,734  INFO ControlerListenerManagerImpl:248 calling notifyAfterMobsim on org.matsim.core.events.MobsimScopeEventHandling
2022-03-25T09:46:13,735  INFO EventsManagerImpl:181 removing Event-Handler: org.matsim.contrib.dvrp.passenger.DefaultPassengerEngine
2022-03-25T09:46:13,735  INFO EventsManagerImpl:181 removing Event-Handler: org.matsim.contrib.dvrp.passenger.DefaultPassengerEngine
2022-03-25T09:46:13,735  INFO ControlerListenerManagerImpl:248 calling notifyAfterMobsim on org.matsim.contrib.util.stats.VehicleTaskProfileCalculator
2022-03-25T09:46:13,736  INFO ControlerListenerManagerImpl:248 calling notifyAfterMobsim on org.matsim.contrib.util.stats.VehicleOccupancyProfileCalculator
2022-03-25T09:46:13,736  INFO ControlerListenerManagerImpl:248 calling notifyAfterMobsim on org.matsim.contrib.taxi.util.stats.TaxiStatsDumper
2022-03-25T09:46:13,786  INFO ControlerListenerManagerImpl:248 calling notifyAfterMobsim on org.matsim.contrib.taxi.benchmark.TaxiBenchmarkStats
2022-03-25T09:46:13,801  INFO ControlerListenerManagerImpl:248 calling notifyAfterMobsim on org.matsim.core.scoring.EventsToActivities$1
2022-03-25T09:46:13,801  WARN CharyparNagelActivityScoring:246 The first and the last activity do not have the same type. 
2022-03-25T09:46:13,801  WARN CharyparNagelActivityScoring:247 Will score the first activity from midnight to its end, and the last activity from its start to midnight.
2022-03-25T09:46:13,802  WARN CharyparNagelActivityScoring:248 Because of the nonlinear function, this is not the same as scoring from start to end.
2022-03-25T09:46:13,811  WARN CharyparNagelActivityScoring:249 first activity: act [type=taxi interaction][coord=[x=2000.0 | y=500.0]][linkId=36][startTime=undefined][endTime=00:04:00][duration=undefined][facilityId=null]
2022-03-25T09:46:13,811  WARN CharyparNagelActivityScoring:250 last activity: act [type=dummy][coord=null][linkId=36][startTime=00:04:01][endTime=undefined][duration=undefined][facilityId=null]
2022-03-25T09:46:13,811  WARN CharyparNagelActivityScoring:251 This may also happen when plans are not completed when the simulation ends.
2022-03-25T09:46:13,811  WARN CharyparNagelActivityScoring:253 Additional warnings of this type are suppressed.
2022-03-25T09:46:13,811  INFO ControlerListenerManagerImpl:251 [it.0] all ControlerAfterMobsimListeners called.
2022-03-25T09:46:13,812  INFO AbstractController$4:159 ### ITERATION 0 fires scoring event
2022-03-25T09:46:13,812  INFO ControlerListenerManagerImpl:183 calling notifyScoring on org.matsim.core.scoring.PlansScoringImpl
2022-03-25T09:46:13,816  INFO NewScoreAssignerImpl:57 it: 0 msaStart: null
2022-03-25T09:46:13,817  INFO ControlerListenerManagerImpl:194 [it.0] all ControlerScoringListeners called.
2022-03-25T09:46:13,817  INFO AbstractController$5:167 ### ITERATION 0 fires iteration end event
2022-03-25T09:46:13,817  INFO ControlerListenerManagerImpl:160 calling notifyIterationEnds on org.matsim.core.controler.corelisteners.EventsHandlingImpl
2022-03-25T09:46:13,818  INFO ControlerListenerManagerImpl:160 calling notifyIterationEnds on org.matsim.core.scoring.PlansScoringImpl
2022-03-25T09:46:13,818  INFO ControlerListenerManagerImpl:167 calling notifyIterationEnds on org.matsim.contrib.util.stats.VehicleTaskProfileWriter
2022-03-25T09:46:13,824  INFO ControlerListenerManagerImpl:167 calling notifyIterationEnds on org.matsim.contrib.util.stats.VehicleOccupancyProfileWriter
2022-03-25T09:46:13,833  INFO ControlerListenerManagerImpl:171 [it.0] all ControlerIterationEndsListeners called.
2022-03-25T09:46:13,834  INFO AbstractController:181 ### ITERATION 0 ENDS
2022-03-25T09:46:13,834  INFO AbstractController:182 ###################################################
2022-03-25T09:46:13,834  INFO MatsimRuntimeModifications:79 S H U T D O W N   ---   start shutdown.
2022-03-25T09:46:13,834  INFO ControlerListenerManagerImpl:121 calling notifyShutdown on org.matsim.core.controler.corelisteners.EventsHandlingImpl
2022-03-25T09:46:13,834  INFO ControlerListenerManagerImpl:126 calling notifyShutdown on org.matsim.contrib.taxi.util.stats.TaxiStatsDumper
2022-03-25T09:46:13,834  INFO ControlerListenerManagerImpl:126 calling notifyShutdown on org.matsim.contrib.dvrp.fleet.FleetControlerListener
2022-03-25T09:46:13,841  INFO ControlerListenerManagerImpl:126 calling notifyShutdown on org.matsim.contrib.taxi.benchmark.TaxiBenchmarkStats
2022-03-25T09:46:13,841  INFO ControlerListenerManagerImpl:129 all ControlerShutdownListeners called.
2022-03-25T09:46:13,842  INFO MatsimRuntimeModifications:102 S H U T D O W N   ---   shutdown completed.
2022-03-25T09:46:13,842  INFO OutputDirectoryLogging:170 closing the logfile, i.e. messages sent to the logger after this message are not written to the logfile.
