<?xml version="1.0" encoding="utf-8"?>
<!DOCTYPE plans SYSTEM "http://www.matsim.org/files/dtd/plans_v4.dtd">

<plans name="created by 'org.matsim.population.algorithms.PlansCreateFromNetwork' with network 'triangle test network'">

<!-- ====================================================================== -->

	<person id="1" sex="m" age="46" license="no" car_avail="never" employed="no">
		<knowledge desc="created by org.matsim.population.algorithms.PlansDefineKnowledge">
			<activity type="education">
				<location id="7">
				</location>
				<location id="3">
				</location>
			</activity>

			<activity type="home">
				<location id="1">
				</location>
			</activity>

			<activity type="shop">
				<location id="13">
				</location>
			</activity>

			<activity type="work">
				<location id="6">
				</location>
			</activity>

		</knowledge>

		<plan score="-1007.0175672553767" selected="no">
			<act type="home" link="110" facility="1" x="60.0" y="110.0" start_time="00:00:00" dur="07:00:49" end_time="07:00:49" />
			<leg mode="car" dep_time="07:00:49" trav_time="00:00:24" arr_time="07:01:13">
				<route dist="180.0" trav_time="00:00:24">
					12 1 2 
				</route>
			</leg>
			<act type="education" link="101" facility="3" x="120.0" y="0.0" start_time="07:00:49" dur="06:00:00" end_time="13:00:49" />
			<leg mode="car" dep_time="13:00:49" trav_time="00:00:24" arr_time="13:01:13">
				<route dist="180.0" trav_time="00:00:24">
					3 4 5 
				</route>
			</leg>
			<act type="work" link="104" facility="6" x="330.0" y="30.0" start_time="13:00:49" dur="06:00:00" end_time="19:00:49" />
			<leg mode="car" dep_time="19:00:49" trav_time="00:01:00" arr_time="19:01:49">
				<route dist="450.0" trav_time="00:01:00">
					6 7 8 9 10 11 
				</route>
			</leg>
			<act type="home" link="110" facility="1" x="60.0" y="110.0" start_time="19:00:49" dur="04:59:11" end_time="24:00:00" />
		</plan>

		<plan score="-1377.8966666666668" selected="no">
			<act type="home" link="110" facility="1" x="60.0" y="110.0" start_time="00:00:00" dur="07:46:35" end_time="07:46:35" />
			<leg mode="car" dep_time="07:46:35" trav_time="00:00:25" arr_time="07:47:00">
				<route dist="180.0" trav_time="00:00:25">
					12 1 2 
				</route>
			</leg>
			<act type="education" link="101" facility="3" x="120.0" y="0.0" start_time="07:46:59" dur="07:36:32" end_time="15:23:31" />
			<leg mode="car" dep_time="15:23:31" trav_time="00:03:05" arr_time="15:26:36">
				<route dist="180.0" trav_time="00:03:05">
					3 4 5 
				</route>
			</leg>
			<act type="work" link="104" facility="6" x="330.0" y="30.0" start_time="15:23:55" dur="07:00:29" end_time="22:24:24" />
			<leg mode="car" dep_time="22:24:24" trav_time="01:33:49" arr_time="23:58:13">
				<route dist="450.0" trav_time="01:33:49">
					6 7 8 9 10 11 
				</route>
			</leg>
			<act type="home" link="110" facility="1" x="60.0" y="110.0" start_time="22:25:24" />
		</plan>

		<plan score="-1021.3861674091225" selected="yes">
			<act type="home" link="110" facility="1" x="60.0" y="110.0" start_time="00:00:00" dur="07:00:49" end_time="07:00:49" />
			<leg mode="car" dep_time="07:00:49" trav_time="00:00:24" arr_time="07:01:13">
				<route dist="180.0" trav_time="00:00:24">
					12 1 2 
				</route>
			</leg>
			<act type="education" link="101" facility="3" x="120.0" y="0.0" start_time="07:00:49" dur="06:00:00" end_time="13:00:49" />
			<leg mode="car" dep_time="13:00:49" trav_time="00:00:24" arr_time="13:01:13">
				<route dist="180.0" trav_time="00:00:24">
					3 4 5 
				</route>
			</leg>
			<act type="work" link="104" facility="6" x="330.0" y="30.0" start_time="13:00:49" dur="06:00:00" end_time="19:00:49" />
			<leg mode="car" dep_time="19:00:49" trav_time="00:01:00" arr_time="19:01:49">
				<route dist="450.0" trav_time="00:01:00">
					6 7 8 9 10 11 
				</route>
			</leg>
			<act type="home" link="110" facility="1" x="60.0" y="110.0" start_time="19:00:49" dur="04:59:11" end_time="24:00:00" />
		</plan>

	</person>

<!-- ====================================================================== -->

	<person id="10" sex="m" age="19" license="yes" car_avail="never" employed="yes">
		<knowledge desc="created by org.matsim.population.algorithms.PlansDefineKnowledge">
			<activity type="education">
				<location id="7">
				</location>
			</activity>

			<activity type="home">
				<location id="5">
				</location>
			</activity>

			<activity type="leisure">
				<location id="14">
				</location>
			</activity>

			<activity type="shop">
				<location id="11">
				</location>
			</activity>

			<activity type="work">
				<location id="6">
				</location>
			</activity>

		</knowledge>

		<plan score="-1068.6366666666668" selected="no">
			<act type="home" link="102" facility="5" x="200.0" y="0.0" start_time="00:00:00" dur="08:57:34" end_time="08:57:34" />
			<leg mode="car" dep_time="08:57:34" trav_time="00:00:12" arr_time="08:57:46">
				<route dist="90.0" trav_time="00:00:12">
					4 5 
				</route>
			</leg>
			<act type="work" link="104" facility="6" x="330.0" y="30.0" start_time="08:57:34" dur="12:00:00" end_time="20:57:34" />
			<leg mode="car" dep_time="20:57:34" trav_time="00:01:04" arr_time="20:58:38">
				<route dist="480.0" trav_time="00:01:04">
					6 1 2 3 
				</route>
			</leg>
			<act type="home" link="102" facility="5" x="200.0" y="0.0" start_time="20:57:34" dur="03:02:26" end_time="24:00:00" />
		</plan>

		<plan score="-1000.2783333333333" selected="yes">
			<act type="home" link="102" facility="5" x="200.0" y="0.0" start_time="00:00:00" dur="08:57:34" end_time="08:57:34" />
			<leg mode="car" dep_time="08:57:34" trav_time="00:00:12" arr_time="08:57:46">
				<route dist="90.0" trav_time="00:00:12">
					4 5 
				</route>
			</leg>
			<act type="work" link="104" facility="6" x="330.0" y="30.0" start_time="08:57:34" dur="12:00:00" end_time="20:57:34" />
			<leg mode="car" dep_time="20:57:34" trav_time="00:01:04" arr_time="20:58:38">
				<route dist="480.0" trav_time="00:01:04">
					6 1 2 3 
				</route>
			</leg>
			<act type="home" link="102" facility="5" x="200.0" y="0.0" start_time="20:57:34" dur="03:02:26" end_time="24:00:00" />
		</plan>

	</person>

<!-- ====================================================================== -->

	<person id="100" sex="m" age="48" license="yes" car_avail="always" employed="yes">
		<knowledge desc="created by org.matsim.population.algorithms.PlansDefineKnowledge">
			<activity type="home">
				<location id="3">
				</location>
			</activity>

			<activity type="leisure">
				<location id="14">
				</location>
				<location id="9">
				</location>
			</activity>

			<activity type="work">
				<location id="9">
				</location>
				<location id="8">
				</location>
			</activity>

		</knowledge>

		<plan score="-342.9610502053702" selected="yes">
			<act type="home" link="101" facility="3" x="120.0" y="0.0" start_time="00:00:00" dur="08:36:38" end_time="08:36:38" />
			<leg mode="car" dep_time="08:36:38" trav_time="00:01:16" arr_time="08:37:54">
				<route dist="570.0" trav_time="00:01:16">
					3 4 5 6 1 
				</route>
			</leg>
			<act type="work" link="100" facility="8" x="50.0" y="0.0" start_time="08:36:38" dur="04:00:00" end_time="12:36:38" />
			<leg mode="car" dep_time="12:36:38" trav_time="00:01:12" arr_time="12:37:50">
				<route dist="540.0" trav_time="00:01:12">
					2 3 4 5 6 7 8 
				</route>
			</leg>
			<act type="leisure" link="107" facility="9" x="250.0" y="270.0" start_time="12:36:38" dur="04:00:00" end_time="16:36:38" />
			<leg mode="car" dep_time="16:36:38" trav_time="00:00:00" arr_time="16:36:38">
				<route dist="0.0" trav_time="00:00:00">
					
				</route>
			</leg>
			<act type="work" link="107" facility="9" x="250.0" y="270.0" start_time="16:36:38" dur="04:00:00" end_time="20:36:38" />
			<leg mode="car" dep_time="20:36:38" trav_time="00:01:00" arr_time="20:37:38">
				<route dist="450.0" trav_time="00:01:00">
					9 10 11 12 1 2 
				</route>
			</leg>
			<act type="home" link="101" facility="3" x="120.0" y="0.0" start_time="20:36:38" dur="03:23:22" end_time="24:00:00" />
		</plan>

		<plan score="-341.52747173606946" selected="no">
			<act type="home" link="101" facility="3" x="120.0" y="0.0" start_time="00:00:00" dur="08:36:38" end_time="08:36:38" />
			<leg mode="car" dep_time="08:36:38" trav_time="00:01:16" arr_time="08:37:54">
				<route dist="570.0" trav_time="00:01:16">
					3 4 5 6 1 
				</route>
			</leg>
			<act type="work" link="100" facility="8" x="50.0" y="0.0" start_time="08:36:38" dur="04:00:00" end_time="12:36:38" />
			<leg mode="car" dep_time="12:36:38" trav_time="00:01:12" arr_time="12:37:50">
				<route dist="540.0" trav_time="00:01:12">
					2 3 4 5 6 7 8 
				</route>
			</leg>
			<act type="leisure" link="107" facility="9" x="250.0" y="270.0" start_time="12:36:38" dur="04:00:00" end_time="16:36:38" />
			<leg mode="car" dep_time="16:36:38" trav_time="00:00:00" arr_time="16:36:38">
				<route dist="0.0" trav_time="00:00:00">
					
				</route>
			</leg>
			<act type="work" link="107" facility="9" x="250.0" y="270.0" start_time="16:36:38" dur="04:00:00" end_time="20:36:38" />
			<leg mode="car" dep_time="20:36:38" trav_time="00:01:00" arr_time="20:37:38">
				<route dist="450.0" trav_time="00:01:00">
					9 10 11 12 1 2 
				</route>
			</leg>
			<act type="home" link="101" facility="3" x="120.0" y="0.0" start_time="20:36:38" dur="03:23:22" end_time="24:00:00" />
		</plan>

		<plan score="-392.9374875402245" selected="no">
			<act type="home" link="101" facility="3" x="120.0" y="0.0" start_time="00:00:00" dur="08:36:38" end_time="08:36:38" />
			<leg mode="car" dep_time="08:36:38" trav_time="00:06:46" arr_time="08:43:24">
				<route dist="570.0" trav_time="00:06:46">
					3 4 5 6 1 
				</route>
			</leg>
			<act type="work" link="100" facility="8" x="50.0" y="0.0" start_time="08:36:38" dur="04:00:00" end_time="12:36:38" />
			<leg mode="car" dep_time="12:36:38" trav_time="00:13:01" arr_time="12:49:39">
				<route dist="570.0" trav_time="00:13:01">
					2 9 10 11 12 
				</route>
			</leg>
			<act type="leisure" link="111" facility="14" x="10.0" y="50.0" start_time="12:36:38" dur="04:00:00" end_time="16:36:38" />
			<leg mode="car" dep_time="16:36:38" trav_time="00:20:59" arr_time="16:57:37">
				<route dist="630.0" trav_time="00:20:59">
					1 2 3 4 5 6 7 8 
				</route>
			</leg>
			<act type="work" link="107" facility="9" x="250.0" y="270.0" start_time="16:36:38" dur="04:00:00" end_time="20:36:38" />
			<leg mode="car" dep_time="20:36:38" trav_time="03:08:20" arr_time="23:44:58">
				<route dist="450.0" trav_time="03:08:20">
					9 10 11 12 1 2 
				</route>
			</leg>
			<act type="home" link="101" facility="3" x="120.0" y="0.0" start_time="20:36:38" dur="03:23:22" end_time="24:00:00" />
		</plan>

	</person>

<!-- ====================================================================== -->

	<person id="1000" sex="m" age="97" license="yes" car_avail="never" employed="no">
		<knowledge desc="created by org.matsim.population.algorithms.PlansDefineKnowledge">
			<activity type="home">
				<location id="4">
				</location>
			</activity>

			<activity type="leisure">
				<location id="15">
				</location>
				<location id="14">
				</location>
			</activity>

			<activity type="shop">
				<location id="8">
				</location>
			</activity>

		</knowledge>

		<plan score="117.28527245931623" selected="yes">
			<act type="home" link="105" facility="4" x="310.0" y="150.0" start_time="00:00:00" dur="07:52:27" end_time="07:52:27" />
			<leg mode="car" dep_time="07:52:27" trav_time="00:00:40" arr_time="07:53:07">
				<route dist="300.0" trav_time="00:00:40">
					7 1 
				</route>
			</leg>
			<act type="shop" link="100" facility="8" x="50.0" y="0.0" start_time="07:52:27" dur="06:00:00" end_time="13:52:27" />
			<leg mode="car" dep_time="13:52:27" trav_time="00:01:16" arr_time="13:53:43">
				<route dist="570.0" trav_time="00:01:16">
					2 9 10 11 12 
				</route>
			</leg>
			<act type="leisure" link="111" facility="14" x="10.0" y="50.0" start_time="13:52:27" dur="06:00:00" end_time="19:52:27" />
			<leg mode="car" dep_time="19:52:27" trav_time="00:01:00" arr_time="19:53:27">
				<route dist="450.0" trav_time="00:01:00">
					1 2 3 4 5 6 
				</route>
			</leg>
			<act type="home" link="105" facility="4" x="310.0" y="150.0" start_time="19:52:27" dur="04:07:33" end_time="24:00:00" />
		</plan>

	</person>

<!-- ====================================================================== -->

	<person id="1001" sex="m" age="63" license="yes" car_avail="always" employed="no">
		<knowledge desc="created by org.matsim.population.algorithms.PlansDefineKnowledge">
			<activity type="education">
				<location id="12">
				</location>
				<location id="10">
				</location>
			</activity>

			<activity type="home">
				<location id="5">
				</location>
			</activity>

			<activity type="leisure">
				<location id="12">
				</location>
				<location id="9">
				</location>
			</activity>

		</knowledge>

		<plan score="-1252.3953392373683" selected="yes">
			<act type="home" link="102" facility="5" x="200.0" y="0.0" start_time="00:00:00" dur="07:14:53" end_time="07:14:53" />
			<leg mode="car" dep_time="07:14:53" trav_time="00:00:40" arr_time="07:15:33">
				<route dist="300.0" trav_time="00:00:40">
					4 9 
				</route>
			</leg>
			<act type="education" link="108" facility="10" x="110.0" y="270.0" start_time="07:14:53" dur="04:00:00" end_time="11:14:53" />
			<leg mode="car" dep_time="11:14:53" trav_time="00:01:00" arr_time="11:15:53">
				<route dist="450.0" trav_time="00:01:00">
					10 11 12 1 2 3 
				</route>
			</leg>
			<act type="home" link="102" facility="5" x="200.0" y="0.0" start_time="11:14:53" dur="04:00:00" end_time="15:14:53" />
			<leg mode="car" dep_time="15:14:53" trav_time="00:00:40" arr_time="15:15:33">
				<route dist="300.0" trav_time="00:00:40">
					4 9 
				</route>
			</leg>
			<act type="education" link="108" facility="12" x="130.0" y="230.0" start_time="15:14:53" dur="04:00:00" end_time="19:14:53" />
			<leg mode="car" dep_time="19:14:53" trav_time="00:01:00" arr_time="19:15:53">
				<route dist="450.0" trav_time="00:01:00">
					10 11 12 1 2 3 
				</route>
			</leg>
			<act type="home" link="102" facility="5" x="200.0" y="0.0" start_time="19:14:53" dur="04:45:07" end_time="24:00:00" />
		</plan>

	</person>

<!-- ====================================================================== -->

	<person id="1002" sex="m" age="34" license="yes" car_avail="never" employed="yes">
		<knowledge desc="created by org.matsim.population.algorithms.PlansDefineKnowledge">
			<activity type="home">
				<location id="4">
				</location>
			</activity>

			<activity type="leisure">
				<location id="14">
				</location>
			</activity>

			<activity type="work">
				<location id="7">
				</location>
				<location id="6">
				</location>
			</activity>

		</knowledge>

		<plan score="158.9070883562176" selected="yes">
			<act type="home" link="105" facility="4" x="310.0" y="150.0" start_time="00:00:00" dur="07:07:56" end_time="07:07:56" />
			<leg mode="car" dep_time="07:07:56" trav_time="00:01:00" arr_time="07:08:56">
				<route dist="450.0" trav_time="00:01:00">
					7 8 9 10 11 12 
				</route>
			</leg>
			<act type="work" link="120" facility="7" x="290.0" y="0.0" start_time="07:07:56" dur="06:00:00" end_time="13:07:56" />
			<leg mode="car" dep_time="13:07:56" trav_time="00:01:24" arr_time="13:09:20">
				<route dist="630.0" trav_time="00:01:24">
					5 6 7 8 9 10 11 12 
				</route>
			</leg>
			<act type="leisure" link="111" facility="14" x="10.0" y="50.0" start_time="13:07:56" dur="06:00:00" end_time="19:07:56" />
			<leg mode="car" dep_time="19:07:56" trav_time="00:01:00" arr_time="19:08:56">
				<route dist="450.0" trav_time="00:01:00">
					1 2 3 4 5 6 
				</route>
			</leg>
			<act type="home" link="105" facility="4" x="310.0" y="150.0" start_time="19:07:56" dur="04:52:04" end_time="24:00:00" />
		</plan>

		<plan score="155.37105184758076" selected="no">
			<act type="home" link="105" facility="4" x="310.0" y="150.0" start_time="00:00:00" dur="05:31:14" end_time="05:31:14" />
			<leg mode="car" dep_time="05:31:14" trav_time="00:01:02" arr_time="05:32:16">
				<route dist="450.0" trav_time="00:01:02">
					7 8 9 10 11 12 
				</route>
			</leg>
			<act type="work" link="120" facility="7" x="290.0" y="0.0" start_time="05:32:14" dur="04:53:54" end_time="10:26:08" />
			<leg mode="car" dep_time="10:26:08" trav_time="00:10:26" arr_time="10:36:34">
				<route dist="1050.0" trav_time="00:10:26">
					5 6 1 2 9 10 11 12 
				</route>
			</leg>
			<act type="leisure" link="111" facility="14" x="10.0" y="50.0" start_time="10:27:32" dur="06:55:31" end_time="17:23:03" />
			<leg mode="car" dep_time="17:23:03" trav_time="00:52:06" arr_time="18:15:09">
				<route dist="450.0" trav_time="00:52:06">
					1 2 3 4 5 6 
				</route>
			</leg>
			<act type="home" link="105" facility="4" x="310.0" y="150.0" start_time="17:24:03" />
		</plan>

	</person>

<!-- ====================================================================== -->

	<person id="1003" sex="f" age="42" license="yes" car_avail="never" employed="no">
		<knowledge desc="created by org.matsim.population.algorithms.PlansDefineKnowledge">
			<activity type="home">
				<location id="5">
				</location>
			</activity>

			<activity type="leisure">
				<location id="14">
				</location>
			</activity>

			<activity type="shop">
				<location id="4">
				</location>
			</activity>

			<activity type="work">
				<location id="9">
				</location>
			</activity>

		</knowledge>

		<plan score="-364.00490274748614" selected="no">
			<act type="home" link="102" facility="5" x="200.0" y="0.0" start_time="00:00:00" dur="07:13:06" end_time="07:13:06" />
			<leg mode="car" dep_time="07:13:06" trav_time="00:01:16" arr_time="07:14:22">
				<route dist="570.0" trav_time="00:01:16">
					4 9 10 11 12 
				</route>
			</leg>
			<act type="leisure" link="111" facility="14" x="10.0" y="50.0" start_time="07:13:06" dur="04:00:00" end_time="11:13:06" />
			<leg mode="car" dep_time="11:13:06" trav_time="00:00:24" arr_time="11:13:30">
				<route dist="180.0" trav_time="00:00:24">
					1 2 3 
				</route>
			</leg>
			<act type="home" link="102" facility="5" x="200.0" y="0.0" start_time="11:13:06" dur="04:00:00" end_time="15:13:06" />
			<leg mode="car" dep_time="15:13:06" trav_time="00:00:48" arr_time="15:13:54">
				<route dist="360.0" trav_time="00:00:48">
					4 5 6 7 8 
				</route>
			</leg>
			<act type="work" link="107" facility="9" x="250.0" y="270.0" start_time="15:13:06" dur="04:00:00" end_time="19:13:06" />
			<leg mode="car" dep_time="19:13:06" trav_time="00:01:12" arr_time="19:14:18">
				<route dist="540.0" trav_time="00:01:12">
					9 10 11 12 1 2 3 
				</route>
			</leg>
			<act type="home" link="102" facility="5" x="200.0" y="0.0" start_time="19:13:06" dur="04:46:54" end_time="24:00:00" />
		</plan>

		<plan score="-312.9687883193531" selected="yes">
			<act type="home" link="102" facility="5" x="200.0" y="0.0" start_time="00:00:00" dur="06:43:38" end_time="06:43:38" />
			<leg mode="car" dep_time="06:43:38" trav_time="00:01:19" arr_time="06:44:57">
				<route dist="570.0" trav_time="00:01:19">
					4 9 10 11 12 
				</route>
			</leg>
			<act type="leisure" link="111" facility="14" x="10.0" y="50.0" start_time="06:44:54" dur="02:23:59" end_time="09:08:53" />
			<leg mode="car" dep_time="09:08:53" trav_time="00:00:25" arr_time="09:09:18">
				<route dist="180.0" trav_time="00:00:25">
					1 2 3 
				</route>
			</leg>
			<act type="home" link="102" facility="5" x="200.0" y="0.0" start_time="09:09:17" dur="05:24:29" end_time="14:33:46" />
			<leg mode="car" dep_time="14:33:46" trav_time="00:19:51" arr_time="14:53:37">
				<route dist="360.0" trav_time="00:19:51">
					4 5 6 7 8 
				</route>
			</leg>
			<act type="work" link="107" facility="9" x="250.0" y="270.0" start_time="14:34:34" dur="04:16:50" end_time="18:51:24" />
			<leg mode="car" dep_time="18:51:24" trav_time="01:28:57" arr_time="20:20:21">
				<route dist="540.0" trav_time="01:28:57">
					9 10 11 12 1 2 3 
				</route>
			</leg>
			<act type="home" link="102" facility="5" x="200.0" y="0.0" start_time="18:52:36" />
		</plan>

		<plan score="-429.6417970188938" selected="no">
			<act type="home" link="102" facility="5" x="200.0" y="0.0" start_time="00:00:00" dur="08:13:06" end_time="08:13:06" />
			<leg mode="car" dep_time="08:13:06" trav_time="00:02:02" arr_time="08:15:08">
				<route dist="570.0" trav_time="00:02:02">
					4 9 10 11 12 
				</route>
			</leg>
			<act type="leisure" link="111" facility="14" x="10.0" y="50.0" start_time="08:14:22" dur="03:58:51" end_time="12:13:13" />
			<leg mode="car" dep_time="12:13:13" trav_time="00:03:29" arr_time="12:16:42">
				<route dist="180.0" trav_time="00:03:29">
					1 2 3 
				</route>
			</leg>
			<act type="home" link="102" facility="5" x="200.0" y="0.0" start_time="12:13:37" dur="02:12:30" end_time="14:26:07" />
			<leg mode="car" dep_time="14:26:07" trav_time="00:35:24" arr_time="15:01:31">
				<route dist="360.0" trav_time="00:35:24">
					4 5 6 7 8 
				</route>
			</leg>
			<act type="work" link="107" facility="9" x="250.0" y="270.0" start_time="14:26:55" dur="04:03:56" end_time="18:30:51" />
			<leg mode="car" dep_time="18:30:51" trav_time="00:42:50" arr_time="19:13:41">
				<route dist="540.0" trav_time="00:42:50">
					9 10 11 12 1 2 3 
				</route>
			</leg>
			<act type="home" link="102" facility="5" x="200.0" y="0.0" start_time="18:32:03" />
		</plan>

	</person>

<!-- ====================================================================== -->

	<person id="1004" sex="m" age="50" license="yes" car_avail="sometimes" employed="yes">
		<knowledge desc="created by org.matsim.population.algorithms.PlansDefineKnowledge">
			<activity type="education">
				<location id="3">
				</location>
			</activity>

			<activity type="home">
				<location id="3">
				</location>
			</activity>

			<activity type="leisure">
				<location id="15">
				</location>
			</activity>

			<activity type="shop">
				<location id="14">
				</location>
				<location id="4">
				</location>
			</activity>

		</knowledge>

		<plan score="141.112139561755" selected="no">
			<act type="home" link="101" facility="3" x="120.0" y="0.0" start_time="00:00:00" dur="07:12:52" end_time="07:12:52" />
			<leg mode="car" dep_time="07:12:52" trav_time="00:00:00" arr_time="07:12:52">
				<route dist="0.0" trav_time="00:00:00">
					
				</route>
			</leg>
			<act type="education" link="101" facility="3" x="120.0" y="0.0" start_time="07:12:52" dur="12:00:00" end_time="19:12:52" />
			<leg mode="car" dep_time="19:12:52" trav_time="00:00:00" arr_time="19:12:52">
				<route dist="0.0" trav_time="00:00:00">
					
				</route>
			</leg>
			<act type="home" link="101" facility="3" x="120.0" y="0.0" start_time="19:12:52" dur="04:47:08" end_time="24:00:00" />
		</plan>

		<plan score="141.112139561755" selected="yes">
			<act type="home" link="101" facility="3" x="120.0" y="0.0" start_time="00:00:00" dur="07:12:52" end_time="07:12:52" />
			<leg mode="car" dep_time="07:12:52" trav_time="00:00:00" arr_time="07:12:52">
				<route dist="0.0" trav_time="00:00:00">
					
				</route>
			</leg>
			<act type="education" link="101" facility="3" x="120.0" y="0.0" start_time="07:12:52" dur="12:00:00" end_time="19:12:52" />
			<leg mode="car" dep_time="19:12:52" trav_time="00:00:00" arr_time="19:12:52">
				<route dist="0.0" trav_time="00:00:00">
					
				</route>
			</leg>
			<act type="home" link="101" facility="3" x="120.0" y="0.0" start_time="19:12:52" dur="04:47:08" end_time="24:00:00" />
		</plan>

		<plan score="141.112139561755" selected="no">
			<act type="home" link="101" facility="3" x="120.0" y="0.0" start_time="00:00:00" dur="07:12:52" end_time="07:12:52" />
			<leg mode="car" dep_time="07:12:52" trav_time="00:00:00" arr_time="07:12:52">
				<route dist="0.0" trav_time="00:00:00">
					
				</route>
			</leg>
			<act type="education" link="101" facility="3" x="120.0" y="0.0" start_time="07:12:52" dur="12:00:00" end_time="19:12:52" />
			<leg mode="car" dep_time="19:12:52" trav_time="00:00:00" arr_time="19:12:52">
				<route dist="0.0" trav_time="00:00:00">
					
				</route>
			</leg>
			<act type="home" link="101" facility="3" x="120.0" y="0.0" start_time="19:12:52" dur="04:47:08" end_time="24:00:00" />
		</plan>

	</person>

<!-- ====================================================================== -->

	<person id="1005" sex="m" age="5" license="no" car_avail="never" employed="no">
		<knowledge desc="created by org.matsim.population.algorithms.PlansDefineKnowledge">
			<activity type="home">
				<location id="2">
				</location>
			</activity>

			<activity type="leisure">
				<location id="14">
				</location>
			</activity>

			<activity type="shop">
				<location id="11">
				</location>
				<location id="4">
				</location>
			</activity>

			<activity type="work">
				<location id="9">
				</location>
			</activity>

		</knowledge>

		<plan score="-1023.2367436727566" selected="no">
			<act type="home" link="104" facility="2" x="310.0" y="70.0" start_time="00:00:00" dur="08:49:15" end_time="08:49:15" />
			<leg mode="car" dep_time="08:49:15" trav_time="00:00:00" arr_time="08:49:15">
				<route dist="0.0" trav_time="00:00:00">
					
				</route>
			</leg>
			<act type="home" link="104" facility="2" x="310.0" y="70.0" start_time="08:49:15" dur="04:00:00" end_time="12:49:15" />
			<leg mode="car" dep_time="12:49:15" trav_time="00:00:24" arr_time="12:49:39">
				<route dist="180.0" trav_time="00:00:24">
					6 7 8 
				</route>
			</leg>
			<act type="work" link="107" facility="9" x="250.0" y="270.0" start_time="12:49:15" dur="04:00:00" end_time="16:49:15" />
			<leg mode="car" dep_time="16:49:15" trav_time="00:00:36" arr_time="16:49:51">
				<route dist="270.0" trav_time="00:00:36">
					9 10 11 12 
				</route>
			</leg>
			<act type="leisure" link="111" facility="14" x="10.0" y="50.0" start_time="16:49:15" dur="04:00:00" end_time="20:49:15" />
			<leg mode="car" dep_time="20:49:15" trav_time="00:00:48" arr_time="20:50:03">
				<route dist="360.0" trav_time="00:00:48">
					1 2 3 4 5 
				</route>
			</leg>
			<act type="home" link="104" facility="2" x="310.0" y="70.0" start_time="20:49:15" dur="03:10:45" end_time="24:00:00" />
		</plan>

		<plan score="-1040.8667970188935" selected="yes">
			<act type="home" link="104" facility="2" x="310.0" y="70.0" start_time="00:00:00" dur="08:49:15" end_time="08:49:15" />
			<leg mode="car" dep_time="08:49:15" trav_time="00:00:00" arr_time="08:49:15">
				<route dist="0.0" trav_time="00:00:00">
					
				</route>
			</leg>
			<act type="home" link="104" facility="2" x="310.0" y="70.0" start_time="08:49:15" dur="04:00:00" end_time="12:49:15" />
			<leg mode="car" dep_time="12:49:15" trav_time="00:03:37" arr_time="12:52:52">
				<route dist="180.0" trav_time="00:03:37">
					6 7 8 
				</route>
			</leg>
			<act type="work" link="107" facility="9" x="250.0" y="270.0" start_time="12:49:15" dur="04:00:00" end_time="16:49:15" />
			<leg mode="car" dep_time="16:49:15" trav_time="01:23:15" arr_time="18:12:30">
				<route dist="270.0" trav_time="01:23:15">
					9 10 11 12 
				</route>
			</leg>
			<act type="leisure" link="111" facility="14" x="10.0" y="50.0" start_time="16:49:15" dur="04:00:00" end_time="20:49:15" />
			<leg mode="car" dep_time="20:49:15" trav_time="01:24:04" arr_time="22:13:19">
				<route dist="360.0" trav_time="01:24:04">
					1 2 3 4 5 
				</route>
			</leg>
			<act type="home" link="104" facility="2" x="310.0" y="70.0" start_time="20:49:15" dur="03:10:45" end_time="24:00:00" />
		</plan>

	</person>

<!-- ====================================================================== -->

	<person id="1006" sex="m" age="50" license="yes" car_avail="always" employed="yes">
		<knowledge desc="created by org.matsim.population.algorithms.PlansDefineKnowledge">
			<activity type="education">
				<location id="3">
				</location>
			</activity>

			<activity type="home">
				<location id="2">
				</location>
			</activity>

			<activity type="leisure">
				<location id="9">
				</location>
			</activity>

			<activity type="shop">
				<location id="14">
				</location>
			</activity>

			<activity type="work">
				<location id="7">
				</location>
			</activity>

		</knowledge>

		<plan score="80.18680599936789" selected="yes">
			<act type="home" link="104" facility="2" x="310.0" y="70.0" start_time="00:00:00" dur="08:58:47" end_time="08:58:47" />
			<leg mode="car" dep_time="08:58:47" trav_time="00:00:00" arr_time="08:58:47">
				<route dist="0.0" trav_time="00:00:00">
					
				</route>
			</leg>
			<act type="home" link="104" facility="2" x="310.0" y="70.0" start_time="08:58:47" dur="06:00:00" end_time="14:58:47" />
			<leg mode="car" dep_time="14:58:47" trav_time="00:00:00" arr_time="14:58:47">
				<route dist="0.0" trav_time="00:00:00">
					
				</route>
			</leg>
			<act type="home" link="104" facility="2" x="310.0" y="70.0" start_time="14:58:47" dur="06:00:00" end_time="20:58:47" />
			<leg mode="car" dep_time="20:58:47" trav_time="00:00:00" arr_time="20:58:47">
				<route dist="0.0" trav_time="00:00:00">
					
				</route>
			</leg>
			<act type="home" link="104" facility="2" x="310.0" y="70.0" start_time="20:58:47" dur="03:01:13" end_time="24:00:00" />
		</plan>

		<plan score="80.18680599936789" selected="no">
			<act type="home" link="104" facility="2" x="310.0" y="70.0" start_time="00:00:00" dur="08:58:47" end_time="08:58:47" />
			<leg mode="car" dep_time="08:58:47" trav_time="00:00:00" arr_time="08:58:47">
				<route dist="0.0" trav_time="00:00:00">
					
				</route>
			</leg>
			<act type="home" link="104" facility="2" x="310.0" y="70.0" start_time="08:58:47" dur="06:00:00" end_time="14:58:47" />
			<leg mode="car" dep_time="14:58:47" trav_time="00:00:00" arr_time="14:58:47">
				<route dist="0.0" trav_time="00:00:00">
					
				</route>
			</leg>
			<act type="home" link="104" facility="2" x="310.0" y="70.0" start_time="14:58:47" dur="06:00:00" end_time="20:58:47" />
			<leg mode="car" dep_time="20:58:47" trav_time="00:00:00" arr_time="20:58:47">
				<route dist="0.0" trav_time="00:00:00">
					
				</route>
			</leg>
			<act type="home" link="104" facility="2" x="310.0" y="70.0" start_time="20:58:47" dur="03:01:13" end_time="24:00:00" />
		</plan>

	</person>

<!-- ====================================================================== -->

	<person id="1007" sex="m" age="44" license="yes" car_avail="always" employed="yes">
		<knowledge desc="created by org.matsim.population.algorithms.PlansDefineKnowledge">
			<activity type="home">
				<location id="3">
				</location>
			</activity>

			<activity type="leisure">
				<location id="14">
				</location>
			</activity>

			<activity type="work">
				<location id="8">
				</location>
				<location id="2">
				</location>
				<location id="7">
				</location>
			</activity>

		</knowledge>

		<plan score="-1206.2133333333334" selected="no">
			<act type="home" link="101" facility="3" x="120.0" y="0.0" start_time="00:00:00" dur="07:52:49" end_time="07:52:49" />
			<leg mode="car" dep_time="07:52:49" trav_time="00:01:16" arr_time="07:54:05">
				<route dist="570.0" trav_time="00:01:16">
					3 4 5 6 1 
				</route>
			</leg>
			<act type="work" link="100" facility="8" x="50.0" y="0.0" start_time="07:52:49" dur="04:00:00" end_time="11:52:49" />
			<leg mode="car" dep_time="11:52:49" trav_time="00:00:00" arr_time="11:52:49">
				<route dist="0.0" trav_time="00:00:00">
					2 
				</route>
			</leg>
			<act type="home" link="101" facility="3" x="120.0" y="0.0" start_time="11:52:49" dur="04:00:00" end_time="15:52:49" />
			<leg mode="car" dep_time="15:52:49" trav_time="00:00:24" arr_time="15:53:13">
				<route dist="180.0" trav_time="00:00:24">
					3 4 5 
				</route>
			</leg>
			<act type="work" link="104" facility="2" x="310.0" y="70.0" start_time="15:52:49" dur="04:00:00" end_time="19:52:49" />
			<leg mode="car" dep_time="19:52:49" trav_time="00:00:52" arr_time="19:53:41">
				<route dist="390.0" trav_time="00:00:52">
					6 1 2 
				</route>
			</leg>
			<act type="home" link="101" facility="3" x="120.0" y="0.0" start_time="19:52:49" dur="04:07:11" end_time="24:00:00" />
		</plan>

		<plan score="-1158.418784127589" selected="yes">
			<act type="home" link="101" facility="3" x="120.0" y="0.0" start_time="00:00:00" dur="06:04:50" end_time="06:04:50" />
			<leg mode="car" dep_time="06:04:50" trav_time="00:01:16" arr_time="06:06:06">
				<route dist="570.0" trav_time="00:01:16">
					3 4 5 6 1 
				</route>
			</leg>
			<act type="work" link="100" facility="8" x="50.0" y="0.0" start_time="06:06:06" dur="05:16:15" end_time="11:22:21" />
			<leg mode="car" dep_time="11:22:21" trav_time="00:00:00" arr_time="11:22:21">
				<route dist="0.0" trav_time="00:00:00">
					2 
				</route>
			</leg>
			<act type="home" link="101" facility="3" x="120.0" y="0.0" start_time="11:22:21" dur="05:49:13" end_time="17:11:34" />
			<leg mode="car" dep_time="17:11:34" trav_time="00:02:11" arr_time="17:13:45">
				<route dist="180.0" trav_time="00:02:11">
					3 4 5 
				</route>
			</leg>
			<act type="work" link="104" facility="2" x="310.0" y="70.0" start_time="17:11:58" dur="05:49:16" end_time="23:01:14" />
			<leg mode="car" dep_time="23:01:14" trav_time="01:50:47" arr_time="24:52:01">
				<route dist="390.0" trav_time="01:50:47">
					6 1 2 
				</route>
			</leg>
			<act type="home" link="101" facility="3" x="120.0" y="0.0" start_time="23:02:06" />
		</plan>

	</person>

<!-- ====================================================================== -->

	<person id="1008" sex="f" age="51" license="yes" car_avail="never" employed="yes">
		<knowledge desc="created by org.matsim.population.algorithms.PlansDefineKnowledge">
			<activity type="education">
				<location id="12">
				</location>
			</activity>

			<activity type="home">
				<location id="5">
				</location>
			</activity>

			<activity type="leisure">
				<location id="9">
				</location>
			</activity>

			<activity type="shop">
				<location id="13">
				</location>
			</activity>

			<activity type="work">
				<location id="8">
				</location>
			</activity>

		</knowledge>

		<plan score="93.48955346496794" selected="no">
			<act type="home" link="102" facility="5" x="200.0" y="0.0" start_time="00:00:00" dur="08:13:18" end_time="08:13:18" />
			<leg mode="car" dep_time="08:13:18" trav_time="00:00:36" arr_time="08:13:54">
				<route dist="270.0" trav_time="00:00:36">
					4 5 6 7 
				</route>
			</leg>
			<act type="shop" link="106" facility="13" x="240.0" y="200.0" start_time="08:13:18" dur="04:00:00" end_time="12:13:18" />
			<leg mode="car" dep_time="12:13:18" trav_time="00:00:00" arr_time="12:13:18">
				<route dist="0.0" trav_time="00:00:00">
					8 
				</route>
			</leg>
			<act type="leisure" link="107" facility="9" x="250.0" y="270.0" start_time="12:13:18" dur="04:00:00" end_time="16:13:18" />
			<leg mode="car" dep_time="16:13:18" trav_time="00:00:00" arr_time="16:13:18">
				<route dist="0.0" trav_time="00:00:00">
					
				</route>
			</leg>
			<act type="leisure" link="107" facility="9" x="250.0" y="270.0" start_time="16:13:18" dur="04:00:00" end_time="20:13:18" />
			<leg mode="car" dep_time="20:13:18" trav_time="00:01:12" arr_time="20:14:30">
				<route dist="540.0" trav_time="00:01:12">
					9 10 11 12 1 2 3 
				</route>
			</leg>
			<act type="home" link="102" facility="5" x="200.0" y="0.0" start_time="20:13:18" dur="03:46:42" end_time="24:00:00" />
		</plan>

		<plan score="229.8468053200354" selected="no">
			<act type="home" link="102" facility="5" x="200.0" y="0.0" start_time="00:00:00" dur="07:00:50" end_time="07:00:50" />
			<leg mode="car" dep_time="07:00:50" trav_time="00:04:02" arr_time="07:04:52">
				<route dist="270.0" trav_time="00:04:02">
					4 5 6 7 
				</route>
			</leg>
			<act type="shop" link="106" facility="13" x="240.0" y="200.0" start_time="07:01:26" dur="02:09:16" end_time="09:10:42" />
			<leg mode="car" dep_time="09:10:42" trav_time="00:00:00" arr_time="09:10:42">
				<route dist="0.0" trav_time="00:00:00">
					8 
				</route>
			</leg>
			<act type="leisure" link="107" facility="9" x="250.0" y="270.0" start_time="09:10:42" dur="02:36:13" end_time="11:46:55" />
			<leg mode="car" dep_time="11:46:55" trav_time="00:00:00" arr_time="11:46:55">
				<route dist="0.0" trav_time="00:00:00">
					
				</route>
			</leg>
			<act type="leisure" link="107" facility="9" x="250.0" y="270.0" start_time="11:46:55" dur="05:52:16" end_time="17:39:11" />
			<leg mode="car" dep_time="17:39:11" trav_time="00:34:05" arr_time="18:13:16">
				<route dist="540.0" trav_time="00:34:05">
					9 10 11 12 1 2 3 
				</route>
			</leg>
			<act type="home" link="102" facility="5" x="200.0" y="0.0" start_time="17:40:23" />
		</plan>

		<plan score="251.41531039955152" selected="yes">
			<act type="home" link="102" facility="5" x="200.0" y="0.0" start_time="00:00:00" dur="07:00:50" end_time="07:00:50" />
			<leg mode="car" dep_time="07:00:50" trav_time="00:04:10" arr_time="07:05:00">
				<route dist="270.0" trav_time="00:04:10">
					4 5 6 7 
				</route>
			</leg>
			<act type="shop" link="106" facility="13" x="240.0" y="200.0" start_time="07:01:26" dur="02:09:16" end_time="09:10:42" />
			<leg mode="car" dep_time="09:10:42" trav_time="00:00:00" arr_time="09:10:42">
				<route dist="0.0" trav_time="00:00:00">
					8 
				</route>
			</leg>
			<act type="leisure" link="107" facility="9" x="250.0" y="270.0" start_time="09:10:42" dur="02:36:13" end_time="11:46:55" />
			<leg mode="car" dep_time="11:46:55" trav_time="00:00:00" arr_time="11:46:55">
				<route dist="0.0" trav_time="00:00:00">
					
				</route>
			</leg>
			<act type="leisure" link="107" facility="9" x="250.0" y="270.0" start_time="11:46:55" dur="05:52:16" end_time="17:39:11" />
			<leg mode="car" dep_time="17:39:11" trav_time="01:53:32" arr_time="19:32:43">
				<route dist="540.0" trav_time="01:53:32">
					9 10 11 12 1 2 3 
				</route>
			</leg>
			<act type="home" link="102" facility="5" x="200.0" y="0.0" start_time="17:40:23" />
		</plan>

	</person>

<!-- ====================================================================== -->

	<person id="101" sex="m" age="33" license="yes" car_avail="always" employed="no">
		<knowledge desc="created by org.matsim.population.algorithms.PlansDefineKnowledge">
			<activity type="education">
				<location id="12">
				</location>
			</activity>

			<activity type="home">
				<location id="1">
				</location>
			</activity>

			<activity type="leisure">
				<location id="12">
				</location>
			</activity>

			<activity type="shop">
				<location id="13">
				</location>
			</activity>

			<activity type="work">
				<location id="9">
				</location>
			</activity>

		</knowledge>

		<plan score="80.18680599936789" selected="no">
			<act type="home" link="110" facility="1" x="60.0" y="110.0" start_time="00:00:00" dur="07:23:33" end_time="07:23:33" />
			<leg mode="car" dep_time="07:23:33" trav_time="00:00:00" arr_time="07:23:33">
				<route dist="0.0" trav_time="00:00:00">
					
				</route>
			</leg>
			<act type="home" link="110" facility="1" x="60.0" y="110.0" start_time="07:23:33" dur="06:00:00" end_time="13:23:33" />
			<leg mode="car" dep_time="13:23:33" trav_time="00:00:00" arr_time="13:23:33">
				<route dist="0.0" trav_time="00:00:00">
					
				</route>
			</leg>
			<act type="home" link="110" facility="1" x="60.0" y="110.0" start_time="13:23:33" dur="06:00:00" end_time="19:23:33" />
			<leg mode="car" dep_time="19:23:33" trav_time="00:00:00" arr_time="19:23:33">
				<route dist="0.0" trav_time="00:00:00">
					
				</route>
			</leg>
			<act type="home" link="110" facility="1" x="60.0" y="110.0" start_time="19:23:33" dur="04:36:27" end_time="24:00:00" />
		</plan>

		<plan score="80.18680599936789" selected="yes">
			<act type="home" link="110" facility="1" x="60.0" y="110.0" start_time="00:00:00" dur="07:23:33" end_time="07:23:33" />
			<leg mode="car" dep_time="07:23:33" trav_time="00:00:00" arr_time="07:23:33">
				<route dist="0.0" trav_time="00:00:00">
					
				</route>
			</leg>
			<act type="home" link="110" facility="1" x="60.0" y="110.0" start_time="07:23:33" dur="06:00:00" end_time="13:23:33" />
			<leg mode="car" dep_time="13:23:33" trav_time="00:00:00" arr_time="13:23:33">
				<route dist="0.0" trav_time="00:00:00">
					
				</route>
			</leg>
			<act type="home" link="110" facility="1" x="60.0" y="110.0" start_time="13:23:33" dur="06:00:00" end_time="19:23:33" />
			<leg mode="car" dep_time="19:23:33" trav_time="00:00:00" arr_time="19:23:33">
				<route dist="0.0" trav_time="00:00:00">
					
				</route>
			</leg>
			<act type="home" link="110" facility="1" x="60.0" y="110.0" start_time="19:23:33" dur="04:36:27" end_time="24:00:00" />
		</plan>

	</person>

<!-- ====================================================================== -->

	<person id="102" sex="f" age="12" license="no" car_avail="never" employed="no">
		<knowledge desc="created by org.matsim.population.algorithms.PlansDefineKnowledge">
			<activity type="education">
				<location id="10">
				</location>
				<location id="12">
				</location>
			</activity>

			<activity type="home">
				<location id="5">
				</location>
			</activity>

			<activity type="leisure">
				<location id="5">
				</location>
			</activity>

			<activity type="work">
				<location id="9">
				</location>
			</activity>

		</knowledge>

		<plan score="-1489.835" selected="no">
			<act type="home" link="102" facility="5" x="200.0" y="0.0" start_time="00:00:00" dur="08:46:29" end_time="08:46:29" />
			<leg mode="car" dep_time="08:46:29" trav_time="00:00:40" arr_time="08:47:09">
				<route dist="300.0" trav_time="00:00:40">
					4 9 
				</route>
			</leg>
			<act type="education" link="108" facility="10" x="110.0" y="270.0" start_time="08:46:29" dur="04:00:00" end_time="12:46:29" />
			<leg mode="car" dep_time="12:46:29" trav_time="00:01:00" arr_time="12:47:29">
				<route dist="450.0" trav_time="00:01:00">
					10 11 12 1 2 3 
				</route>
			</leg>
			<act type="home" link="102" facility="5" x="200.0" y="0.0" start_time="12:46:29" dur="04:00:00" end_time="16:46:29" />
			<leg mode="car" dep_time="16:46:29" trav_time="00:00:40" arr_time="16:47:09">
				<route dist="300.0" trav_time="00:00:40">
					4 9 
				</route>
			</leg>
			<act type="education" link="108" facility="12" x="130.0" y="230.0" start_time="16:46:29" dur="04:00:00" end_time="20:46:29" />
			<leg mode="car" dep_time="20:46:29" trav_time="00:01:00" arr_time="20:47:29">
				<route dist="450.0" trav_time="00:01:00">
					10 11 12 1 2 3 
				</route>
			</leg>
			<act type="home" link="102" facility="5" x="200.0" y="0.0" start_time="20:46:29" dur="03:13:31" end_time="24:00:00" />
		</plan>

		<plan score="-1300.875" selected="yes">
			<act type="home" link="102" facility="5" x="200.0" y="0.0" start_time="00:00:00" dur="07:31:01" end_time="07:31:01" />
			<leg mode="car" dep_time="07:31:01" trav_time="00:00:41" arr_time="07:31:42">
				<route dist="300.0" trav_time="00:00:41">
					4 9 
				</route>
			</leg>
			<act type="education" link="108" facility="10" x="110.0" y="270.0" start_time="07:31:41" dur="03:38:11" end_time="11:09:52" />
			<leg mode="car" dep_time="11:09:52" trav_time="00:06:55" arr_time="11:16:47">
				<route dist="870.0" trav_time="00:06:55">
					10 5 6 1 2 3 
				</route>
			</leg>
			<act type="home" link="102" facility="5" x="200.0" y="0.0" start_time="11:10:52" dur="03:24:48" end_time="14:35:40" />
			<leg mode="car" dep_time="14:35:40" trav_time="00:00:41" arr_time="14:36:21">
				<route dist="300.0" trav_time="00:00:41">
					4 9 
				</route>
			</leg>
			<act type="education" link="108" facility="12" x="130.0" y="230.0" start_time="14:36:20" dur="03:04:06" end_time="17:40:26" />
			<leg mode="car" dep_time="17:40:26" trav_time="00:06:34" arr_time="17:47:00">
				<route dist="450.0" trav_time="00:06:34">
					10 11 12 1 2 3 
				</route>
			</leg>
			<act type="home" link="102" facility="5" x="200.0" y="0.0" start_time="17:41:26" />
		</plan>

	</person>

<!-- ====================================================================== -->

	<person id="103" sex="f" age="25" license="no" car_avail="never" employed="yes">
		<knowledge desc="created by org.matsim.population.algorithms.PlansDefineKnowledge">
			<activity type="home">
				<location id="1">
				</location>
			</activity>

			<activity type="leisure">
				<location id="9">
				</location>
				<location id="15">
				</location>
			</activity>

			<activity type="shop">
				<location id="4">
				</location>
			</activity>

			<activity type="work">
				<location id="2">
				</location>
			</activity>

		</knowledge>

		<plan score="-1183.6433348143419" selected="yes">
			<act type="home" link="110" facility="1" x="60.0" y="110.0" start_time="00:00:00" dur="08:43:35" end_time="08:43:35" />
			<leg mode="car" dep_time="08:43:35" trav_time="00:00:41" arr_time="08:44:16">
				<route dist="300.0" trav_time="00:00:41">
					12 5 
				</route>
			</leg>
			<act type="work" link="104" facility="2" x="310.0" y="70.0" start_time="08:43:35" dur="06:00:00" end_time="14:43:35" />
			<leg mode="car" dep_time="14:43:35" trav_time="00:03:16" arr_time="14:46:51">
				<route dist="180.0" trav_time="00:03:16">
					6 7 8 
				</route>
			</leg>
			<act type="leisure" link="107" facility="9" x="250.0" y="270.0" start_time="14:43:35" dur="06:00:00" end_time="20:43:35" />
			<leg mode="car" dep_time="20:43:35" trav_time="01:10:49" arr_time="21:54:24">
				<route dist="180.0" trav_time="01:10:49">
					9 10 11 
				</route>
			</leg>
			<act type="home" link="110" facility="1" x="60.0" y="110.0" start_time="20:43:35" dur="03:16:25" end_time="24:00:00" />
		</plan>

		<plan score="-1204.0114830926486" selected="no">
			<act type="home" link="110" facility="1" x="60.0" y="110.0" start_time="00:00:00" dur="08:43:35" end_time="08:43:35" />
			<leg mode="car" dep_time="08:43:35" trav_time="00:00:40" arr_time="08:44:15">
				<route dist="300.0" trav_time="00:00:40">
					12 5 
				</route>
			</leg>
			<act type="work" link="104" facility="2" x="310.0" y="70.0" start_time="08:43:35" dur="06:00:00" end_time="14:43:35" />
			<leg mode="car" dep_time="14:43:35" trav_time="00:00:24" arr_time="14:43:59">
				<route dist="180.0" trav_time="00:00:24">
					6 7 8 
				</route>
			</leg>
			<act type="leisure" link="107" facility="9" x="250.0" y="270.0" start_time="14:43:35" dur="06:00:00" end_time="20:43:35" />
			<leg mode="car" dep_time="20:43:35" trav_time="00:00:24" arr_time="20:43:59">
				<route dist="180.0" trav_time="00:00:24">
					9 10 11 
				</route>
			</leg>
			<act type="home" link="110" facility="1" x="60.0" y="110.0" start_time="20:43:35" dur="03:16:25" end_time="24:00:00" />
		</plan>

		<plan score="-1189.448461288482" selected="no">
			<act type="home" link="110" facility="1" x="60.0" y="110.0" start_time="00:00:00" dur="08:43:35" end_time="08:43:35" />
			<leg mode="car" dep_time="08:43:35" trav_time="00:00:41" arr_time="08:44:16">
				<route dist="300.0" trav_time="00:00:41">
					12 5 
				</route>
			</leg>
			<act type="work" link="104" facility="2" x="310.0" y="70.0" start_time="08:43:35" dur="06:00:00" end_time="14:43:35" />
			<leg mode="car" dep_time="14:43:35" trav_time="00:00:00" arr_time="14:43:35">
				<route dist="0.0" trav_time="00:00:00">
					6 
				</route>
			</leg>
			<act type="leisure" link="105" facility="15" x="260.0" y="110.0" start_time="14:43:35" dur="06:00:00" end_time="20:43:35" />
			<leg mode="car" dep_time="20:43:35" trav_time="01:37:22" arr_time="22:20:57">
				<route dist="360.0" trav_time="01:37:22">
					7 8 9 10 11 
				</route>
			</leg>
			<act type="home" link="110" facility="1" x="60.0" y="110.0" start_time="20:43:35" dur="03:16:25" end_time="24:00:00" />
		</plan>

	</person>

<!-- ====================================================================== -->

	<person id="104" sex="f" age="50" license="no" car_avail="never" employed="yes">
		<knowledge desc="created by org.matsim.population.algorithms.PlansDefineKnowledge">
			<activity type="education">
				<location id="11">
				</location>
				<location id="7">
				</location>
			</activity>

			<activity type="home">
				<location id="2">
				</location>
			</activity>

			<activity type="shop">
				<location id="14">
				</location>
			</activity>

		</knowledge>

		<plan score="70.5870771950643" selected="no">
			<act type="home" link="104" facility="2" x="310.0" y="70.0" start_time="00:00:00" dur="07:04:08" end_time="07:04:08" />
			<leg mode="car" dep_time="07:04:08" trav_time="00:01:12" arr_time="07:05:20">
				<route dist="540.0" trav_time="00:01:12">
					6 7 8 9 10 11 12 
				</route>
			</leg>
			<act type="education" link="120" facility="7" x="290.0" y="0.0" start_time="07:04:08" dur="06:00:00" end_time="13:04:08" />
			<leg mode="car" dep_time="13:04:08" trav_time="00:00:00" arr_time="13:04:08">
				<route dist="0.0" trav_time="00:00:00">
					
				</route>
			</leg>
			<act type="education" link="120" facility="7" x="290.0" y="0.0" start_time="13:04:08" dur="06:00:00" end_time="19:04:08" />
			<leg mode="car" dep_time="19:04:08" trav_time="00:00:00" arr_time="19:04:08">
				<route dist="0.0" trav_time="00:00:00">
					5 
				</route>
			</leg>
			<act type="home" link="104" facility="2" x="310.0" y="70.0" start_time="19:04:08" dur="04:55:52" end_time="24:00:00" />
		</plan>

		<plan score="75.15924544589078" selected="yes">
			<act type="home" link="104" facility="2" x="310.0" y="70.0" start_time="00:00:00" dur="07:04:08" end_time="07:04:08" />
			<leg mode="car" dep_time="07:04:08" trav_time="00:03:58" arr_time="07:08:06">
				<route dist="960.0" trav_time="00:03:58">
					6 1 2 9 10 11 12 
				</route>
			</leg>
			<act type="education" link="120" facility="7" x="290.0" y="0.0" start_time="07:04:08" dur="06:00:00" end_time="13:04:08" />
			<leg mode="car" dep_time="13:04:08" trav_time="00:00:00" arr_time="13:04:08">
				<route dist="0.0" trav_time="00:00:00">
					
				</route>
			</leg>
			<act type="education" link="120" facility="7" x="290.0" y="0.0" start_time="13:04:08" dur="06:00:00" end_time="19:04:08" />
			<leg mode="car" dep_time="19:04:08" trav_time="00:00:00" arr_time="19:04:08">
				<route dist="0.0" trav_time="00:00:00">
					5 
				</route>
			</leg>
			<act type="home" link="104" facility="2" x="310.0" y="70.0" start_time="19:04:08" dur="04:55:52" end_time="24:00:00" />
		</plan>

		<plan score="-1240.3333333333335" selected="no">
			<act type="home" link="104" facility="2" x="310.0" y="70.0" start_time="00:00:00" dur="08:14:00" end_time="08:14:00" />
			<leg mode="car" dep_time="08:14:00" trav_time="00:04:12" arr_time="08:18:12">
				<route dist="960.0" trav_time="00:04:12">
					6 1 2 9 10 11 12 
				</route>
			</leg>
			<act type="education" link="120" facility="7" x="290.0" y="0.0" start_time="08:15:12" dur="07:06:04" end_time="15:21:16" />
			<leg mode="car" dep_time="15:21:16" trav_time="00:00:00" arr_time="15:21:16">
				<route dist="0.0" trav_time="00:00:00">
					
				</route>
			</leg>
			<act type="education" link="120" facility="7" x="290.0" y="0.0" start_time="15:21:16" dur="06:51:07" end_time="22:12:23" />
			<leg mode="car" dep_time="22:12:23" trav_time="00:00:00" arr_time="22:12:23">
				<route dist="0.0" trav_time="00:00:00">
					5 
				</route>
			</leg>
			<act type="home" link="104" facility="2" x="310.0" y="70.0" start_time="22:12:23" />
		</plan>

	</person>

<!-- ====================================================================== -->

	<person id="105" sex="f" age="60" license="no" car_avail="never" employed="no">
		<knowledge desc="created by org.matsim.population.algorithms.PlansDefineKnowledge">
			<activity type="home">
				<location id="1">
				</location>
			</activity>

			<activity type="leisure">
				<location id="5">
				</location>
				<location id="15">
				</location>
			</activity>

			<activity type="shop">
				<location id="4">
				</location>
			</activity>

			<activity type="work">
				<location id="6">
				</location>
			</activity>

		</knowledge>

		<plan score="120.0" selected="yes">
			<act type="home" link="110" facility="1" x="60.0" y="110.0" start_time="00:00:00" dur="08:42:47" end_time="08:42:47" />
			<leg mode="car" dep_time="08:42:47" trav_time="00:00:00" arr_time="08:42:47">
				<route dist="0.0" trav_time="00:00:00">
					
				</route>
			</leg>
			<act type="home" link="110" facility="1" x="60.0" y="110.0" start_time="08:42:47" dur="12:00:00" end_time="20:42:47" />
			<leg mode="car" dep_time="20:42:47" trav_time="00:00:00" arr_time="20:42:47">
				<route dist="0.0" trav_time="00:00:00">
					
				</route>
			</leg>
			<act type="home" link="110" facility="1" x="60.0" y="110.0" start_time="20:42:47" dur="03:17:13" end_time="24:00:00" />
		</plan>

	</person>

<!-- ====================================================================== -->

	<person id="106" sex="m" age="59" license="yes" car_avail="never" employed="no">
		<knowledge desc="created by org.matsim.population.algorithms.PlansDefineKnowledge">
			<activity type="education">
				<location id="11">
				</location>
			</activity>

			<activity type="home">
				<location id="4">
				</location>
			</activity>

			<activity type="shop">
				<location id="13">
				</location>
				<location id="11">
				</location>
				<location id="14">
				</location>
			</activity>

		</knowledge>

		<plan score="90.46560938766692" selected="no">
			<act type="home" link="105" facility="4" x="310.0" y="150.0" start_time="00:00:00" dur="07:25:41" end_time="07:25:41" />
			<leg mode="car" dep_time="07:25:41" trav_time="00:01:00" arr_time="07:26:41">
				<route dist="450.0" trav_time="00:01:00">
					7 8 9 10 11 12 
				</route>
			</leg>
			<act type="shop" link="111" facility="14" x="10.0" y="50.0" start_time="07:25:41" dur="06:00:00" end_time="13:25:41" />
			<leg mode="car" dep_time="13:25:41" trav_time="00:01:00" arr_time="13:26:41">
				<route dist="450.0" trav_time="00:01:00">
					1 2 3 4 5 6 
				</route>
			</leg>
			<act type="home" link="105" facility="4" x="310.0" y="150.0" start_time="13:25:41" dur="06:00:00" end_time="19:25:41" />
			<leg mode="car" dep_time="19:25:41" trav_time="00:00:00" arr_time="19:25:41">
				<route dist="0.0" trav_time="00:00:00">
					
				</route>
			</leg>
			<act type="home" link="105" facility="4" x="310.0" y="150.0" start_time="19:25:41" dur="04:34:19" end_time="24:00:00" />
		</plan>

		<plan score="95.38631376804976" selected="yes">
			<act type="home" link="105" facility="4" x="310.0" y="150.0" start_time="00:00:00" dur="07:25:41" end_time="07:25:41" />
			<leg mode="car" dep_time="07:25:41" trav_time="00:01:00" arr_time="07:26:41">
				<route dist="450.0" trav_time="00:01:00">
					7 8 9 10 11 12 
				</route>
			</leg>
			<act type="shop" link="111" facility="14" x="10.0" y="50.0" start_time="07:25:41" dur="06:00:00" end_time="13:25:41" />
			<leg mode="car" dep_time="13:25:41" trav_time="00:01:00" arr_time="13:26:41">
				<route dist="450.0" trav_time="00:01:00">
					1 2 3 4 5 6 
				</route>
			</leg>
			<act type="home" link="105" facility="4" x="310.0" y="150.0" start_time="13:25:41" dur="06:00:00" end_time="19:25:41" />
			<leg mode="car" dep_time="19:25:41" trav_time="00:00:00" arr_time="19:25:41">
				<route dist="0.0" trav_time="00:00:00">
					
				</route>
			</leg>
			<act type="home" link="105" facility="4" x="310.0" y="150.0" start_time="19:25:41" dur="04:34:19" end_time="24:00:00" />
		</plan>

	</person>

<!-- ====================================================================== -->

	<person id="107" sex="m" age="18" license="no" car_avail="never" employed="yes">
		<knowledge desc="created by org.matsim.population.algorithms.PlansDefineKnowledge">
			<activity type="education">
				<location id="10">
				</location>
			</activity>

			<activity type="home">
				<location id="5">
				</location>
			</activity>

			<activity type="shop">
				<location id="8">
				</location>
			</activity>

			<activity type="work">
				<location id="7">
				</location>
				<location id="6">
				</location>
			</activity>

		</knowledge>

		<plan score="-1528.395" selected="no">
			<act type="home" link="102" facility="5" x="200.0" y="0.0" start_time="00:00:00" dur="07:57:45" end_time="07:57:45" />
			<leg mode="car" dep_time="07:57:45" trav_time="00:00:12" arr_time="07:57:57">
				<route dist="90.0" trav_time="00:00:12">
					4 5 
				</route>
			</leg>
			<act type="work" link="104" facility="6" x="330.0" y="30.0" start_time="07:57:45" dur="04:00:00" end_time="11:57:45" />
			<leg mode="car" dep_time="11:57:45" trav_time="00:00:40" arr_time="11:58:25">
				<route dist="300.0" trav_time="00:00:40">
					6 1 
				</route>
			</leg>
			<act type="shop" link="100" facility="8" x="50.0" y="0.0" start_time="11:57:45" dur="04:00:00" end_time="15:57:45" />
			<leg mode="car" dep_time="15:57:45" trav_time="00:01:16" arr_time="15:59:01">
				<route dist="570.0" trav_time="00:01:16">
					2 9 10 11 12 
				</route>
			</leg>
			<act type="work" link="120" facility="7" x="290.0" y="0.0" start_time="15:57:45" dur="04:00:00" end_time="19:57:45" />
			<leg mode="car" dep_time="19:57:45" trav_time="00:01:16" arr_time="19:59:01">
				<route dist="570.0" trav_time="00:01:16">
					5 6 1 2 3 
				</route>
			</leg>
			<act type="home" link="102" facility="5" x="200.0" y="0.0" start_time="19:57:45" dur="04:02:15" end_time="24:00:00" />
		</plan>

		<plan score="-1616.7050000000002" selected="yes">
			<act type="home" link="102" facility="5" x="200.0" y="0.0" start_time="00:00:00" dur="07:57:45" end_time="07:57:45" />
			<leg mode="car" dep_time="07:57:45" trav_time="00:00:13" arr_time="07:57:58">
				<route dist="90.0" trav_time="00:00:13">
					4 5 
				</route>
			</leg>
			<act type="work" link="104" facility="6" x="330.0" y="30.0" start_time="07:57:45" dur="04:00:00" end_time="11:57:45" />
			<leg mode="car" dep_time="11:57:45" trav_time="00:00:40" arr_time="11:58:25">
				<route dist="300.0" trav_time="00:00:40">
					6 1 
				</route>
			</leg>
			<act type="shop" link="100" facility="8" x="50.0" y="0.0" start_time="11:57:45" dur="04:00:00" end_time="15:57:45" />
			<leg mode="car" dep_time="15:57:45" trav_time="00:29:01" arr_time="16:26:46">
				<route dist="570.0" trav_time="00:29:01">
					2 9 10 11 12 
				</route>
			</leg>
			<act type="work" link="120" facility="7" x="290.0" y="0.0" start_time="15:57:45" dur="04:00:00" end_time="19:57:45" />
			<leg mode="car" dep_time="19:57:45" trav_time="01:39:54" arr_time="21:37:39">
				<route dist="570.0" trav_time="01:39:54">
					5 6 1 2 3 
				</route>
			</leg>
			<act type="home" link="102" facility="5" x="200.0" y="0.0" start_time="19:57:45" dur="04:02:15" end_time="24:00:00" />
		</plan>

		<plan score="-1643.1583333333335" selected="no">
			<act type="home" link="102" facility="5" x="200.0" y="0.0" start_time="00:00:00" dur="07:57:45" end_time="07:57:45" />
			<leg mode="car" dep_time="07:57:45" trav_time="00:00:12" arr_time="07:57:57">
				<route dist="90.0" trav_time="00:00:12">
					4 5 
				</route>
			</leg>
			<act type="work" link="104" facility="6" x="330.0" y="30.0" start_time="07:57:45" dur="04:00:00" end_time="11:57:45" />
			<leg mode="car" dep_time="11:57:45" trav_time="00:00:40" arr_time="11:58:25">
				<route dist="300.0" trav_time="00:00:40">
					6 1 
				</route>
			</leg>
			<act type="shop" link="100" facility="8" x="50.0" y="0.0" start_time="11:57:45" dur="04:00:00" end_time="15:57:45" />
			<leg mode="car" dep_time="15:57:45" trav_time="00:01:16" arr_time="15:59:01">
				<route dist="570.0" trav_time="00:01:16">
					2 9 10 11 12 
				</route>
			</leg>
			<act type="work" link="120" facility="7" x="290.0" y="0.0" start_time="15:57:45" dur="04:00:00" end_time="19:57:45" />
			<leg mode="car" dep_time="19:57:45" trav_time="00:01:16" arr_time="19:59:01">
				<route dist="570.0" trav_time="00:01:16">
					5 6 1 2 3 
				</route>
			</leg>
			<act type="home" link="102" facility="5" x="200.0" y="0.0" start_time="19:57:45" dur="04:02:15" end_time="24:00:00" />
		</plan>

	</person>

<!-- ====================================================================== -->

	<person id="108" sex="f" age="22" license="no" car_avail="never" employed="yes">
		<knowledge desc="created by org.matsim.population.algorithms.PlansDefineKnowledge">
			<activity type="education">
				<location id="7">
				</location>
			</activity>

			<activity type="home">
				<location id="4">
				</location>
			</activity>

			<activity type="leisure">
				<location id="9">
				</location>
				<location id="15">
				</location>
			</activity>

			<activity type="shop">
				<location id="13">
				</location>
			</activity>

		</knowledge>

		<plan score="160.9602151212898" selected="no">
			<act type="home" link="105" facility="4" x="310.0" y="150.0" start_time="00:00:00" dur="07:04:02" end_time="07:04:02" />
			<leg mode="car" dep_time="07:04:02" trav_time="00:00:00" arr_time="07:04:02">
				<route dist="0.0" trav_time="00:00:00">
					
				</route>
			</leg>
			<act type="leisure" link="105" facility="15" x="260.0" y="110.0" start_time="07:04:02" dur="12:00:00" end_time="19:04:02" />
			<leg mode="car" dep_time="19:04:02" trav_time="00:00:00" arr_time="19:04:02">
				<route dist="0.0" trav_time="00:00:00">
					
				</route>
			</leg>
			<act type="home" link="105" facility="4" x="310.0" y="150.0" start_time="19:04:02" dur="04:55:58" end_time="24:00:00" />
		</plan>

		<plan score="160.78485733186244" selected="yes">
			<act type="home" link="105" facility="4" x="310.0" y="150.0" start_time="00:00:00" dur="06:02:04" end_time="06:02:04" />
			<leg mode="car" dep_time="06:02:04" trav_time="00:00:00" arr_time="06:02:04">
				<route dist="0.0" trav_time="00:00:00">
					
				</route>
			</leg>
			<act type="leisure" link="105" facility="15" x="260.0" y="110.0" start_time="06:02:04" dur="12:02:06" end_time="18:04:10" />
			<leg mode="car" dep_time="18:04:10" trav_time="00:00:00" arr_time="18:04:10">
				<route dist="0.0" trav_time="00:00:00">
					
				</route>
			</leg>
			<act type="home" link="105" facility="4" x="310.0" y="150.0" start_time="18:04:10" />
		</plan>

	</person>

<!-- ====================================================================== -->

	<person id="109" sex="f" age="54" license="yes" car_avail="never" employed="no">
		<knowledge desc="created by org.matsim.population.algorithms.PlansDefineKnowledge">
			<activity type="education">
				<location id="12">
				</location>
			</activity>

			<activity type="home">
				<location id="4">
				</location>
			</activity>

			<activity type="shop">
				<location id="8">
				</location>
				<location id="14">
				</location>
			</activity>

			<activity type="work">
				<location id="6">
				</location>
			</activity>

		</knowledge>

		<plan score="-755.5933333333332" selected="yes">
			<act type="home" link="105" facility="4" x="310.0" y="150.0" start_time="00:00:00" dur="08:07:36" end_time="08:07:36" />
			<leg mode="car" dep_time="08:07:36" trav_time="00:01:16" arr_time="08:08:52">
				<route dist="570.0" trav_time="00:01:16">
					7 8 9 10 5 
				</route>
			</leg>
			<act type="work" link="104" facility="6" x="330.0" y="30.0" start_time="08:07:36" dur="04:00:00" end_time="12:07:36" />
			<leg mode="car" dep_time="12:07:36" trav_time="00:00:00" arr_time="12:07:36">
				<route dist="0.0" trav_time="00:00:00">
					6 
				</route>
			</leg>
			<act type="home" link="105" facility="4" x="310.0" y="150.0" start_time="12:07:36" dur="04:00:00" end_time="16:07:36" />
			<leg mode="car" dep_time="16:07:36" trav_time="00:01:00" arr_time="16:08:36">
				<route dist="450.0" trav_time="00:01:00">
					7 8 9 10 11 12 
				</route>
			</leg>
			<act type="shop" link="111" facility="14" x="10.0" y="50.0" start_time="16:07:36" dur="04:00:00" end_time="20:07:36" />
			<leg mode="car" dep_time="20:07:36" trav_time="00:01:00" arr_time="20:08:36">
				<route dist="450.0" trav_time="00:01:00">
					1 2 3 4 5 6 
				</route>
			</leg>
			<act type="home" link="105" facility="4" x="310.0" y="150.0" start_time="20:07:36" dur="03:52:24" end_time="24:00:00" />
		</plan>

		<plan score="-790.4933333333335" selected="no">
			<act type="home" link="105" facility="4" x="310.0" y="150.0" start_time="00:00:00" dur="08:07:36" end_time="08:07:36" />
			<leg mode="car" dep_time="08:07:36" trav_time="00:01:16" arr_time="08:08:52">
				<route dist="570.0" trav_time="00:01:16">
					7 8 9 10 5 
				</route>
			</leg>
			<act type="work" link="104" facility="6" x="330.0" y="30.0" start_time="08:07:36" dur="04:00:00" end_time="12:07:36" />
			<leg mode="car" dep_time="12:07:36" trav_time="00:00:00" arr_time="12:07:36">
				<route dist="0.0" trav_time="00:00:00">
					6 
				</route>
			</leg>
			<act type="home" link="105" facility="4" x="310.0" y="150.0" start_time="12:07:36" dur="04:00:00" end_time="16:07:36" />
			<leg mode="car" dep_time="16:07:36" trav_time="00:01:00" arr_time="16:08:36">
				<route dist="450.0" trav_time="00:01:00">
					7 8 9 10 11 12 
				</route>
			</leg>
			<act type="shop" link="111" facility="14" x="10.0" y="50.0" start_time="16:07:36" dur="04:00:00" end_time="20:07:36" />
			<leg mode="car" dep_time="20:07:36" trav_time="00:01:00" arr_time="20:08:36">
				<route dist="450.0" trav_time="00:01:00">
					1 2 3 4 5 6 
				</route>
			</leg>
			<act type="home" link="105" facility="4" x="310.0" y="150.0" start_time="20:07:36" dur="03:52:24" end_time="24:00:00" />
		</plan>

	</person>

<!-- ====================================================================== -->

	<person id="11" sex="m" age="10" license="no" car_avail="never" employed="no">
		<knowledge desc="created by org.matsim.population.algorithms.PlansDefineKnowledge">
			<activity type="education">
				<location id="10">
				</location>
				<location id="11">
				</location>
			</activity>

			<activity type="home">
				<location id="3">
				</location>
			</activity>

			<activity type="leisure">
				<location id="15">
				</location>
			</activity>

			<activity type="shop">
				<location id="11">
				</location>
			</activity>

		</knowledge>

		<plan score="37.07744498260382" selected="no">
			<act type="home" link="101" facility="3" x="120.0" y="0.0" start_time="00:00:00" dur="08:05:05" end_time="08:05:05" />
			<leg mode="car" dep_time="08:05:05" trav_time="00:00:36" arr_time="08:05:41">
				<route dist="270.0" trav_time="00:00:36">
					3 4 5 6 
				</route>
			</leg>
			<act type="leisure" link="105" facility="15" x="260.0" y="110.0" start_time="08:05:05" dur="12:00:00" end_time="20:05:05" />
			<leg mode="car" dep_time="20:05:05" trav_time="00:00:52" arr_time="20:05:57">
				<route dist="390.0" trav_time="00:00:52">
					7 1 2 
				</route>
			</leg>
			<act type="home" link="101" facility="3" x="120.0" y="0.0" start_time="20:05:05" dur="03:54:55" end_time="24:00:00" />
		</plan>

		<plan score="34.384403733324945" selected="yes">
			<act type="home" link="101" facility="3" x="120.0" y="0.0" start_time="00:00:00" dur="08:05:05" end_time="08:05:05" />
			<leg mode="car" dep_time="08:05:05" trav_time="00:00:36" arr_time="08:05:41">
				<route dist="270.0" trav_time="00:00:36">
					3 4 5 6 
				</route>
			</leg>
			<act type="leisure" link="105" facility="15" x="260.0" y="110.0" start_time="08:05:05" dur="12:00:00" end_time="20:05:05" />
			<leg mode="car" dep_time="20:05:05" trav_time="00:00:52" arr_time="20:05:57">
				<route dist="390.0" trav_time="00:00:52">
					7 1 2 
				</route>
			</leg>
			<act type="home" link="101" facility="3" x="120.0" y="0.0" start_time="20:05:05" dur="03:54:55" end_time="24:00:00" />
		</plan>

		<plan score="30.394471815392734" selected="no">
			<act type="home" link="101" facility="3" x="120.0" y="0.0" start_time="00:00:00" dur="08:00:48" end_time="08:00:48" />
			<leg mode="car" dep_time="08:00:48" trav_time="00:02:59" arr_time="08:03:47">
				<route dist="780.0" trav_time="00:02:59">
					3 9 10 5 6 
				</route>
			</leg>
			<act type="leisure" link="105" facility="15" x="260.0" y="110.0" start_time="08:01:24" dur="13:02:34" end_time="21:03:58" />
			<leg mode="car" dep_time="21:03:58" trav_time="01:20:47" arr_time="22:24:45">
				<route dist="390.0" trav_time="01:20:47">
					7 1 2 
				</route>
			</leg>
			<act type="home" link="101" facility="3" x="120.0" y="0.0" start_time="21:04:50" />
		</plan>

	</person>

<!-- ====================================================================== -->

	<person id="110" sex="f" age="23" license="no" car_avail="never" employed="yes">
		<knowledge desc="created by org.matsim.population.algorithms.PlansDefineKnowledge">
			<activity type="education">
				<location id="12">
				</location>
				<location id="11">
				</location>
			</activity>

			<activity type="home">
				<location id="4">
				</location>
			</activity>

			<activity type="leisure">
				<location id="15">
				</location>
			</activity>

			<activity type="work">
				<location id="6">
				</location>
			</activity>

		</knowledge>

		<plan score="-773.0276751353277" selected="yes">
			<act type="home" link="105" facility="4" x="310.0" y="150.0" start_time="00:00:00" dur="07:45:51" end_time="07:45:51" />
			<leg mode="car" dep_time="07:45:51" trav_time="00:01:16" arr_time="07:47:07">
				<route dist="570.0" trav_time="00:01:16">
					7 8 9 10 5 
				</route>
			</leg>
			<act type="work" link="104" facility="6" x="330.0" y="30.0" start_time="07:45:51" dur="12:00:00" end_time="19:45:51" />
			<leg mode="car" dep_time="19:45:51" trav_time="00:00:00" arr_time="19:45:51">
				<route dist="0.0" trav_time="00:00:00">
					6 
				</route>
			</leg>
			<act type="home" link="105" facility="4" x="310.0" y="150.0" start_time="19:45:51" dur="04:14:09" end_time="24:00:00" />
		</plan>

		<plan score="-800.4513688451509" selected="no">
			<act type="home" link="105" facility="4" x="310.0" y="150.0" start_time="00:00:00" dur="07:48:38" end_time="07:48:38" />
			<leg mode="car" dep_time="07:48:38" trav_time="00:04:10" arr_time="07:52:48">
				<route dist="660.0" trav_time="00:04:10">
					7 1 2 3 4 5 
				</route>
			</leg>
			<act type="work" link="104" facility="6" x="330.0" y="30.0" start_time="07:49:54" dur="12:59:07" end_time="20:49:01" />
			<leg mode="car" dep_time="20:49:01" trav_time="00:00:00" arr_time="20:49:01">
				<route dist="0.0" trav_time="00:00:00">
					6 
				</route>
			</leg>
			<act type="home" link="105" facility="4" x="310.0" y="150.0" start_time="20:49:01" />
		</plan>

	</person>

<!-- ====================================================================== -->

	<person id="111" sex="f" age="66" license="no" car_avail="never" employed="no">
		<knowledge desc="created by org.matsim.population.algorithms.PlansDefineKnowledge">
			<activity type="home">
				<location id="4">
				</location>
			</activity>

			<activity type="shop">
				<location id="14">
				</location>
				<location id="11">
				</location>
				<location id="8">
				</location>
			</activity>

			<activity type="work">
				<location id="2">
				</location>
			</activity>

		</knowledge>

		<plan score="-799.9705408414659" selected="yes">
			<act type="home" link="105" facility="4" x="310.0" y="150.0" start_time="00:00:00" dur="07:44:07" end_time="07:44:07" />
			<leg mode="car" dep_time="07:44:07" trav_time="00:01:16" arr_time="07:45:23">
				<route dist="570.0" trav_time="00:01:16">
					7 8 9 10 5 
				</route>
			</leg>
			<act type="work" link="104" facility="2" x="310.0" y="70.0" start_time="07:44:07" dur="04:00:00" end_time="11:44:07" />
			<leg mode="car" dep_time="11:44:07" trav_time="00:00:00" arr_time="11:44:07">
				<route dist="0.0" trav_time="00:00:00">
					
				</route>
			</leg>
			<act type="work" link="104" facility="2" x="310.0" y="70.0" start_time="11:44:07" dur="04:00:00" end_time="15:44:07" />
			<leg mode="car" dep_time="15:44:07" trav_time="00:00:48" arr_time="15:44:55">
				<route dist="360.0" trav_time="00:00:48">
					6 7 8 9 10 
				</route>
			</leg>
			<act type="shop" link="109" facility="11" x="90.0" y="170.0" start_time="15:44:07" dur="04:00:00" end_time="19:44:07" />
			<leg mode="car" dep_time="19:44:07" trav_time="00:00:52" arr_time="19:44:59">
				<route dist="390.0" trav_time="00:00:52">
					11 5 6 
				</route>
			</leg>
			<act type="home" link="105" facility="4" x="310.0" y="150.0" start_time="19:44:07" dur="04:15:53" end_time="24:00:00" />
		</plan>

	</person>

<!-- ====================================================================== -->

	<person id="112" sex="m" age="24" license="no" car_avail="never" employed="no">
		<knowledge desc="created by org.matsim.population.algorithms.PlansDefineKnowledge">
			<activity type="education">
				<location id="12">
				</location>
			</activity>

			<activity type="home">
				<location id="2">
				</location>
			</activity>

			<activity type="leisure">
				<location id="5">
				</location>
			</activity>

			<activity type="shop">
				<location id="14">
				</location>
				<location id="4">
				</location>
			</activity>

		</knowledge>

		<plan score="15.251892435318283" selected="no">
			<act type="home" link="104" facility="2" x="310.0" y="70.0" start_time="00:00:00" dur="07:11:45" end_time="07:11:45" />
			<leg mode="car" dep_time="07:11:45" trav_time="00:00:00" arr_time="07:11:45">
				<route dist="0.0" trav_time="00:00:00">
					6 
				</route>
			</leg>
			<act type="shop" link="105" facility="4" x="310.0" y="150.0" start_time="07:11:45" dur="12:00:00" end_time="19:11:45" />
			<leg mode="car" dep_time="19:11:45" trav_time="00:01:16" arr_time="19:13:01">
				<route dist="570.0" trav_time="00:01:16">
					7 8 9 10 5 
				</route>
			</leg>
			<act type="home" link="104" facility="2" x="310.0" y="70.0" start_time="19:11:45" dur="04:48:15" end_time="24:00:00" />
		</plan>

		<plan score="15.251892435318283" selected="no">
			<act type="home" link="104" facility="2" x="310.0" y="70.0" start_time="00:00:00" dur="07:11:45" end_time="07:11:45" />
			<leg mode="car" dep_time="07:11:45" trav_time="00:00:00" arr_time="07:11:45">
				<route dist="0.0" trav_time="00:00:00">
					6 
				</route>
			</leg>
			<act type="shop" link="105" facility="4" x="310.0" y="150.0" start_time="07:11:45" dur="12:00:00" end_time="19:11:45" />
			<leg mode="car" dep_time="19:11:45" trav_time="00:01:16" arr_time="19:13:01">
				<route dist="570.0" trav_time="00:01:16">
					7 8 9 10 5 
				</route>
			</leg>
			<act type="home" link="104" facility="2" x="310.0" y="70.0" start_time="19:11:45" dur="04:48:15" end_time="24:00:00" />
		</plan>

		<plan score="95.95212041128619" selected="yes">
			<act type="home" link="104" facility="2" x="310.0" y="70.0" start_time="00:00:00" dur="07:11:45" end_time="07:11:45" />
			<leg mode="car" dep_time="07:11:45" trav_time="00:03:58" arr_time="07:15:43">
				<route dist="960.0" trav_time="00:03:58">
					6 1 2 9 10 11 12 
				</route>
			</leg>
			<act type="shop" link="111" facility="14" x="10.0" y="50.0" start_time="07:11:45" dur="12:00:00" end_time="19:11:45" />
			<leg mode="car" dep_time="19:11:45" trav_time="00:15:43" arr_time="19:27:28">
				<route dist="360.0" trav_time="00:15:43">
					1 2 3 4 5 
				</route>
			</leg>
			<act type="home" link="104" facility="2" x="310.0" y="70.0" start_time="19:11:45" dur="04:48:15" end_time="24:00:00" />
		</plan>

	</person>

<!-- ====================================================================== -->

	<person id="113" sex="f" age="22" license="yes" car_avail="sometimes" employed="no">
		<knowledge desc="created by org.matsim.population.algorithms.PlansDefineKnowledge">
			<activity type="home">
				<location id="3">
				</location>
			</activity>

			<activity type="leisure">
				<location id="15">
				</location>
				<location id="5">
				</location>
			</activity>

		</knowledge>

		<plan score="-66.78496467329005" selected="no">
			<act type="home" link="101" facility="3" x="120.0" y="0.0" start_time="00:00:00" dur="07:26:57" end_time="07:26:57" />
			<leg mode="car" dep_time="07:26:57" trav_time="00:00:00" arr_time="07:26:57">
				<route dist="0.0" trav_time="00:00:00">
					
				</route>
			</leg>
			<act type="home" link="101" facility="3" x="120.0" y="0.0" start_time="07:26:57" dur="04:00:00" end_time="11:26:57" />
			<leg mode="car" dep_time="11:26:57" trav_time="00:00:36" arr_time="11:27:33">
				<route dist="270.0" trav_time="00:00:36">
					3 4 5 6 
				</route>
			</leg>
			<act type="leisure" link="105" facility="15" x="260.0" y="110.0" start_time="11:26:57" dur="04:00:00" end_time="15:26:57" />
			<leg mode="car" dep_time="15:26:57" trav_time="00:00:52" arr_time="15:27:49">
				<route dist="390.0" trav_time="00:00:52">
					7 1 2 
				</route>
			</leg>
			<act type="home" link="101" facility="3" x="120.0" y="0.0" start_time="15:26:57" dur="04:00:00" end_time="19:26:57" />
			<leg mode="car" dep_time="19:26:57" trav_time="00:00:00" arr_time="19:26:57">
				<route dist="0.0" trav_time="00:00:00">
					
				</route>
			</leg>
			<act type="home" link="101" facility="3" x="120.0" y="0.0" start_time="19:26:57" dur="04:33:03" end_time="24:00:00" />
		</plan>

		<plan score="-70.44116465564457" selected="no">
			<act type="home" link="101" facility="3" x="120.0" y="0.0" start_time="00:00:00" dur="05:52:09" end_time="05:52:09" />
			<leg mode="car" dep_time="05:52:09" trav_time="00:00:00" arr_time="05:52:09">
				<route dist="0.0" trav_time="00:00:00">
					
				</route>
			</leg>
			<act type="home" link="101" facility="3" x="120.0" y="0.0" start_time="05:52:09" dur="04:43:48" end_time="10:35:57" />
			<leg mode="car" dep_time="10:35:57" trav_time="00:08:41" arr_time="10:44:38">
				<route dist="270.0" trav_time="00:08:41">
					3 4 5 6 
				</route>
			</leg>
			<act type="leisure" link="105" facility="15" x="260.0" y="110.0" start_time="10:36:33" dur="05:41:39" end_time="16:18:12" />
			<leg mode="car" dep_time="16:18:12" trav_time="00:00:52" arr_time="16:19:04">
				<route dist="390.0" trav_time="00:00:52">
					7 1 2 
				</route>
			</leg>
			<act type="home" link="101" facility="3" x="120.0" y="0.0" start_time="16:19:04" dur="05:47:36" end_time="22:06:40" />
			<leg mode="car" dep_time="22:06:40" trav_time="00:00:00" arr_time="22:06:40">
				<route dist="0.0" trav_time="00:00:00">
					
				</route>
			</leg>
			<act type="home" link="101" facility="3" x="120.0" y="0.0" start_time="22:06:40" />
		</plan>

		<plan score="-70.94442670384743" selected="yes">
			<act type="home" link="101" facility="3" x="120.0" y="0.0" start_time="00:00:00" dur="05:42:13" end_time="05:42:13" />
			<leg mode="car" dep_time="05:42:13" trav_time="00:00:00" arr_time="05:42:13">
				<route dist="0.0" trav_time="00:00:00">
					
				</route>
			</leg>
			<act type="home" link="101" facility="3" x="120.0" y="0.0" start_time="05:42:13" dur="03:11:25" end_time="08:53:38" />
			<leg mode="car" dep_time="08:53:38" trav_time="00:06:09" arr_time="08:59:47">
				<route dist="270.0" trav_time="00:06:09">
					3 4 5 6 
				</route>
			</leg>
			<act type="leisure" link="105" facility="15" x="260.0" y="110.0" start_time="08:54:14" dur="05:48:29" end_time="14:42:43" />
			<leg mode="car" dep_time="14:42:43" trav_time="00:03:45" arr_time="14:46:28">
				<route dist="390.0" trav_time="00:03:45">
					7 1 2 
				</route>
			</leg>
			<act type="home" link="101" facility="3" x="120.0" y="0.0" start_time="14:43:35" dur="02:10:24" end_time="16:53:59" />
			<leg mode="car" dep_time="16:53:59" trav_time="00:00:00" arr_time="16:53:59">
				<route dist="0.0" trav_time="00:00:00">
					
				</route>
			</leg>
[...]
					9 10 
				</route>
			</leg>
			<act type="education" link="109" facility="11" x="90.0" y="170.0" start_time="14:02:38" dur="06:00:00" end_time="20:02:38" />
			<leg mode="car" dep_time="20:02:38" trav_time="00:00:00" arr_time="20:02:38">
				<route dist="0.0" trav_time="00:00:00">
					11 
				</route>
			</leg>
			<act type="home" link="110" facility="1" x="60.0" y="110.0" start_time="20:02:38" dur="03:57:22" end_time="24:00:00" />
		</plan>

		<plan score="-401.35764097200274" selected="no">
			<act type="home" link="110" facility="1" x="60.0" y="110.0" start_time="00:00:00" dur="08:02:38" end_time="08:02:38" />
			<leg mode="car" dep_time="08:02:38" trav_time="00:03:14" arr_time="08:05:52">
				<route dist="570.0" trav_time="00:03:14">
					12 5 6 7 8 
				</route>
			</leg>
			<act type="leisure" link="107" facility="9" x="250.0" y="270.0" start_time="08:02:38" dur="06:00:00" end_time="14:02:38" />
			<leg mode="car" dep_time="14:02:38" trav_time="00:11:22" arr_time="14:14:00">
				<route dist="90.0" trav_time="00:11:22">
					9 10 
				</route>
			</leg>
			<act type="education" link="109" facility="11" x="90.0" y="170.0" start_time="14:02:38" dur="06:00:00" end_time="20:02:38" />
			<leg mode="car" dep_time="20:02:38" trav_time="00:00:00" arr_time="20:02:38">
				<route dist="0.0" trav_time="00:00:00">
					11 
				</route>
			</leg>
			<act type="home" link="110" facility="1" x="60.0" y="110.0" start_time="20:02:38" dur="03:57:22" end_time="24:00:00" />
		</plan>

	</person>

<!-- ====================================================================== -->

	<person id="995" sex="f" age="14" license="no" car_avail="never" employed="no">
		<knowledge desc="created by org.matsim.population.algorithms.PlansDefineKnowledge">
			<activity type="education">
				<location id="3">
				</location>
			</activity>

			<activity type="home">
				<location id="2">
				</location>
			</activity>

			<activity type="leisure">
				<location id="14">
				</location>
			</activity>

			<activity type="shop">
				<location id="4">
				</location>
			</activity>

			<activity type="work">
				<location id="9">
				</location>
			</activity>

		</knowledge>

		<plan score="-1115.4783333333332" selected="no">
			<act type="home" link="104" facility="2" x="310.0" y="70.0" start_time="00:00:00" dur="08:44:42" end_time="08:44:42" />
			<leg mode="car" dep_time="08:44:42" trav_time="00:00:00" arr_time="08:44:42">
				<route dist="0.0" trav_time="00:00:00">
					
				</route>
			</leg>
			<act type="home" link="104" facility="2" x="310.0" y="70.0" start_time="08:44:42" dur="04:00:00" end_time="12:44:42" />
			<leg mode="car" dep_time="12:44:42" trav_time="00:00:00" arr_time="12:44:42">
				<route dist="0.0" trav_time="00:00:00">
					6 
				</route>
			</leg>
			<act type="shop" link="105" facility="4" x="310.0" y="150.0" start_time="12:44:42" dur="04:00:00" end_time="16:44:42" />
			<leg mode="car" dep_time="16:44:42" trav_time="00:00:52" arr_time="16:45:34">
				<route dist="390.0" trav_time="00:00:52">
					7 1 2 
				</route>
			</leg>
			<act type="education" link="101" facility="3" x="120.0" y="0.0" start_time="16:44:42" dur="04:00:00" end_time="20:44:42" />
			<leg mode="car" dep_time="20:44:42" trav_time="00:00:24" arr_time="20:45:06">
				<route dist="180.0" trav_time="00:00:24">
					3 4 5 
				</route>
			</leg>
			<act type="home" link="104" facility="2" x="310.0" y="70.0" start_time="20:44:42" dur="03:15:18" end_time="24:00:00" />
		</plan>

		<plan score="-1107.5783333333334" selected="no">
			<act type="home" link="104" facility="2" x="310.0" y="70.0" start_time="00:00:00" dur="08:44:42" end_time="08:44:42" />
			<leg mode="car" dep_time="08:44:42" trav_time="00:00:00" arr_time="08:44:42">
				<route dist="0.0" trav_time="00:00:00">
					
				</route>
			</leg>
			<act type="home" link="104" facility="2" x="310.0" y="70.0" start_time="08:44:42" dur="04:00:00" end_time="12:44:42" />
			<leg mode="car" dep_time="12:44:42" trav_time="00:00:00" arr_time="12:44:42">
				<route dist="0.0" trav_time="00:00:00">
					6 
				</route>
			</leg>
			<act type="shop" link="105" facility="4" x="310.0" y="150.0" start_time="12:44:42" dur="04:00:00" end_time="16:44:42" />
			<leg mode="car" dep_time="16:44:42" trav_time="00:00:52" arr_time="16:45:34">
				<route dist="390.0" trav_time="00:00:52">
					7 1 2 
				</route>
			</leg>
			<act type="education" link="101" facility="3" x="120.0" y="0.0" start_time="16:44:42" dur="04:00:00" end_time="20:44:42" />
			<leg mode="car" dep_time="20:44:42" trav_time="00:00:24" arr_time="20:45:06">
				<route dist="180.0" trav_time="00:00:24">
					3 4 5 
				</route>
			</leg>
			<act type="home" link="104" facility="2" x="310.0" y="70.0" start_time="20:44:42" dur="03:15:18" end_time="24:00:00" />
		</plan>

		<plan score="-1073.5116666666668" selected="yes">
			<act type="home" link="104" facility="2" x="310.0" y="70.0" start_time="00:00:00" dur="08:44:42" end_time="08:44:42" />
			<leg mode="car" dep_time="08:44:42" trav_time="00:00:00" arr_time="08:44:42">
				<route dist="0.0" trav_time="00:00:00">
					
				</route>
			</leg>
			<act type="home" link="104" facility="2" x="310.0" y="70.0" start_time="08:44:42" dur="04:00:00" end_time="12:44:42" />
			<leg mode="car" dep_time="12:44:42" trav_time="00:00:00" arr_time="12:44:42">
				<route dist="0.0" trav_time="00:00:00">
					6 
				</route>
			</leg>
			<act type="shop" link="105" facility="4" x="310.0" y="150.0" start_time="12:44:42" dur="04:00:00" end_time="16:44:42" />
			<leg mode="car" dep_time="16:44:42" trav_time="00:00:52" arr_time="16:45:34">
				<route dist="390.0" trav_time="00:00:52">
					7 1 2 
				</route>
			</leg>
			<act type="education" link="101" facility="3" x="120.0" y="0.0" start_time="16:44:42" dur="04:00:00" end_time="20:44:42" />
			<leg mode="car" dep_time="20:44:42" trav_time="00:00:24" arr_time="20:45:06">
				<route dist="180.0" trav_time="00:00:24">
					3 4 5 
				</route>
			</leg>
			<act type="home" link="104" facility="2" x="310.0" y="70.0" start_time="20:44:42" dur="03:15:18" end_time="24:00:00" />
		</plan>

	</person>

<!-- ====================================================================== -->

	<person id="996" sex="m" age="36" license="no" car_avail="never" employed="yes">
		<knowledge desc="created by org.matsim.population.algorithms.PlansDefineKnowledge">
			<activity type="education">
				<location id="7">
				</location>
			</activity>

			<activity type="home">
				<location id="5">
				</location>
			</activity>

			<activity type="shop">
				<location id="13">
				</location>
				<location id="4">
				</location>
			</activity>

		</knowledge>

		<plan score="-285.42291560051086" selected="no">
			<act type="home" link="102" facility="5" x="200.0" y="0.0" start_time="00:00:00" dur="08:52:36" end_time="08:52:36" />
			<leg mode="car" dep_time="08:52:36" trav_time="00:01:16" arr_time="08:53:52">
				<route dist="570.0" trav_time="00:01:16">
					4 9 10 11 12 
				</route>
			</leg>
			<act type="education" link="120" facility="7" x="290.0" y="0.0" start_time="08:52:36" dur="12:00:00" end_time="20:52:36" />
			<leg mode="car" dep_time="20:52:36" trav_time="00:01:16" arr_time="20:53:52">
				<route dist="570.0" trav_time="00:01:16">
					5 6 1 2 3 
				</route>
			</leg>
			<act type="home" link="102" facility="5" x="200.0" y="0.0" start_time="20:52:36" dur="03:07:24" end_time="24:00:00" />
		</plan>

		<plan score="-299.2932965597404" selected="no">
			<act type="home" link="102" facility="5" x="200.0" y="0.0" start_time="00:00:00" dur="08:52:36" end_time="08:52:36" />
			<leg mode="car" dep_time="08:52:36" trav_time="00:01:16" arr_time="08:53:52">
				<route dist="570.0" trav_time="00:01:16">
					4 9 10 11 12 
				</route>
			</leg>
			<act type="education" link="120" facility="7" x="290.0" y="0.0" start_time="08:52:36" dur="12:00:00" end_time="20:52:36" />
			<leg mode="car" dep_time="20:52:36" trav_time="00:01:16" arr_time="20:53:52">
				<route dist="570.0" trav_time="00:01:16">
					5 6 1 2 3 
				</route>
			</leg>
			<act type="home" link="102" facility="5" x="200.0" y="0.0" start_time="20:52:36" dur="03:07:24" end_time="24:00:00" />
		</plan>

		<plan score="-318.26781421954786" selected="yes">
			<act type="home" link="102" facility="5" x="200.0" y="0.0" start_time="00:00:00" dur="10:04:07" end_time="10:04:07" />
			<leg mode="car" dep_time="10:04:07" trav_time="00:29:45" arr_time="10:33:52">
				<route dist="570.0" trav_time="00:29:45">
					4 9 10 11 12 
				</route>
			</leg>
			<act type="education" link="120" facility="7" x="290.0" y="0.0" start_time="10:05:23" dur="12:13:07" end_time="22:18:30" />
			<leg mode="car" dep_time="22:18:30" trav_time="04:51:05" arr_time="27:09:35">
				<route dist="570.0" trav_time="04:51:05">
					5 6 1 2 3 
				</route>
			</leg>
			<act type="home" link="102" facility="5" x="200.0" y="0.0" start_time="22:19:46" />
		</plan>

	</person>

<!-- ====================================================================== -->

	<person id="997" sex="f" age="4" license="no" car_avail="never" employed="no">
		<knowledge desc="created by org.matsim.population.algorithms.PlansDefineKnowledge">
			<activity type="education">
				<location id="7">
				</location>
			</activity>

			<activity type="home">
				<location id="4">
				</location>
			</activity>

			<activity type="leisure">
				<location id="12">
				</location>
				<location id="14">
				</location>
			</activity>

			<activity type="shop">
				<location id="14">
				</location>
			</activity>

		</knowledge>

		<plan score="55.137284145063234" selected="no">
			<act type="home" link="105" facility="4" x="310.0" y="150.0" start_time="00:00:00" dur="08:15:02" end_time="08:15:02" />
			<leg mode="car" dep_time="08:15:02" trav_time="00:01:00" arr_time="08:16:02">
				<route dist="450.0" trav_time="00:01:00">
					7 8 9 10 11 12 
				</route>
			</leg>
			<act type="leisure" link="111" facility="14" x="10.0" y="50.0" start_time="08:15:02" dur="12:00:00" end_time="20:15:02" />
			<leg mode="car" dep_time="20:15:02" trav_time="00:01:00" arr_time="20:16:02">
				<route dist="450.0" trav_time="00:01:00">
					1 2 3 4 5 6 
				</route>
			</leg>
			<act type="home" link="105" facility="4" x="310.0" y="150.0" start_time="20:15:02" dur="03:44:58" end_time="24:00:00" />
		</plan>

		<plan score="71.79878130739925" selected="no">
			<act type="home" link="105" facility="4" x="310.0" y="150.0" start_time="00:00:00" dur="08:15:02" end_time="08:15:02" />
			<leg mode="car" dep_time="08:15:02" trav_time="00:04:27" arr_time="08:19:29">
				<route dist="450.0" trav_time="00:04:27">
					7 8 9 10 11 12 
				</route>
			</leg>
			<act type="leisure" link="111" facility="14" x="10.0" y="50.0" start_time="08:15:02" dur="12:00:00" end_time="20:15:02" />
			<leg mode="car" dep_time="20:15:02" trav_time="02:30:53" arr_time="22:45:55">
				<route dist="450.0" trav_time="02:30:53">
					1 2 3 4 5 6 
				</route>
			</leg>
			<act type="home" link="105" facility="4" x="310.0" y="150.0" start_time="20:15:02" dur="03:44:58" end_time="24:00:00" />
		</plan>

		<plan score="64.14585996320619" selected="no">
			<act type="home" link="105" facility="4" x="310.0" y="150.0" start_time="00:00:00" dur="08:15:02" end_time="08:15:02" />
			<leg mode="car" dep_time="08:15:02" trav_time="00:01:00" arr_time="08:16:02">
				<route dist="450.0" trav_time="00:01:00">
					7 8 9 10 11 12 
				</route>
			</leg>
			<act type="leisure" link="111" facility="14" x="10.0" y="50.0" start_time="08:15:02" dur="12:00:00" end_time="20:15:02" />
			<leg mode="car" dep_time="20:15:02" trav_time="00:01:00" arr_time="20:16:02">
				<route dist="450.0" trav_time="00:01:00">
					1 2 3 4 5 6 
				</route>
			</leg>
			<act type="home" link="105" facility="4" x="310.0" y="150.0" start_time="20:15:02" dur="03:44:58" end_time="24:00:00" />
		</plan>

		<plan score="77.37425037171778" selected="yes">
			<act type="home" link="105" facility="4" x="310.0" y="150.0" start_time="00:00:00" dur="08:15:02" end_time="08:15:02" />
			<leg mode="car" dep_time="08:15:02" trav_time="00:29:04" arr_time="08:44:06">
				<route dist="450.0" trav_time="00:29:04">
					7 8 9 10 11 12 
				</route>
			</leg>
			<act type="leisure" link="111" facility="14" x="10.0" y="50.0" start_time="08:15:02" dur="12:00:00" end_time="20:15:02" />
			<leg mode="car" dep_time="20:15:02" trav_time="02:44:42" arr_time="22:59:44">
				<route dist="450.0" trav_time="02:44:42">
					1 2 3 4 5 6 
				</route>
			</leg>
			<act type="home" link="105" facility="4" x="310.0" y="150.0" start_time="20:15:02" dur="03:44:58" end_time="24:00:00" />
		</plan>

	</person>

<!-- ====================================================================== -->

	<person id="998" sex="f" age="22" license="yes" car_avail="sometimes" employed="yes">
		<knowledge desc="created by org.matsim.population.algorithms.PlansDefineKnowledge">
			<activity type="home">
				<location id="1">
				</location>
			</activity>

			<activity type="leisure">
				<location id="15">
				</location>
				<location id="14">
				</location>
			</activity>

			<activity type="work">
				<location id="7">
				</location>
			</activity>

		</knowledge>

		<plan score="-178.78597064433905" selected="yes">
			<act type="home" link="110" facility="1" x="60.0" y="110.0" start_time="00:00:00" dur="07:39:59" end_time="07:39:59" />
			<leg mode="car" dep_time="07:39:59" trav_time="00:00:00" arr_time="07:39:59">
				<route dist="0.0" trav_time="00:00:00">
					12 
				</route>
			</leg>
			<act type="work" link="120" facility="7" x="290.0" y="0.0" start_time="07:39:59" dur="12:00:00" end_time="19:39:59" />
			<leg mode="car" dep_time="19:39:59" trav_time="00:01:12" arr_time="19:41:11">
				<route dist="540.0" trav_time="00:01:12">
					5 6 7 8 9 10 11 
				</route>
			</leg>
			<act type="home" link="110" facility="1" x="60.0" y="110.0" start_time="19:39:59" dur="04:20:01" end_time="24:00:00" />
		</plan>

	</person>

<!-- ====================================================================== -->

	<person id="999" sex="f" age="55" license="no" car_avail="never" employed="no">
		<knowledge desc="created by org.matsim.population.algorithms.PlansDefineKnowledge">
			<activity type="home">
				<location id="5">
				</location>
			</activity>

			<activity type="shop">
				<location id="11">
				</location>
			</activity>

			<activity type="work">
				<location id="6">
				</location>
				<location id="7">
				</location>
			</activity>

		</knowledge>

		<plan score="-1509.9668540401008" selected="no">
			<act type="home" link="102" facility="5" x="200.0" y="0.0" start_time="00:00:00" dur="07:48:22" end_time="07:48:22" />
			<leg mode="car" dep_time="07:48:22" trav_time="00:00:12" arr_time="07:48:34">
				<route dist="90.0" trav_time="00:00:12">
					4 5 
				</route>
			</leg>
			<act type="work" link="104" facility="6" x="330.0" y="30.0" start_time="07:48:22" dur="04:00:00" end_time="11:48:22" />
			<leg mode="car" dep_time="11:48:22" trav_time="00:00:00" arr_time="11:48:22">
				<route dist="0.0" trav_time="00:00:00">
					
				</route>
			</leg>
			<act type="work" link="104" facility="6" x="330.0" y="30.0" start_time="11:48:22" dur="04:00:00" end_time="15:48:22" />
			<leg mode="car" dep_time="15:48:22" trav_time="00:01:12" arr_time="15:49:34">
				<route dist="540.0" trav_time="00:01:12">
					6 7 8 9 10 11 12 
				</route>
			</leg>
			<act type="work" link="120" facility="7" x="290.0" y="0.0" start_time="15:48:22" dur="04:00:00" end_time="19:48:22" />
			<leg mode="car" dep_time="19:48:22" trav_time="00:01:16" arr_time="19:49:38">
				<route dist="570.0" trav_time="00:01:16">
					5 6 1 2 3 
				</route>
			</leg>
			<act type="home" link="102" facility="5" x="200.0" y="0.0" start_time="19:48:22" dur="04:11:38" end_time="24:00:00" />
		</plan>

		<plan score="-1347.542731333544" selected="no">
			<act type="home" link="102" facility="5" x="200.0" y="0.0" start_time="00:00:00" dur="07:48:22" end_time="07:48:22" />
			<leg mode="car" dep_time="07:48:22" trav_time="00:00:13" arr_time="07:48:35">
				<route dist="90.0" trav_time="00:00:13">
					4 5 
				</route>
			</leg>
			<act type="work" link="104" facility="6" x="330.0" y="30.0" start_time="07:48:22" dur="04:00:00" end_time="11:48:22" />
			<leg mode="car" dep_time="11:48:22" trav_time="00:00:00" arr_time="11:48:22">
				<route dist="0.0" trav_time="00:00:00">
					
				</route>
			</leg>
			<act type="work" link="104" facility="6" x="330.0" y="30.0" start_time="11:48:22" dur="04:00:00" end_time="15:48:22" />
			<leg mode="car" dep_time="15:48:22" trav_time="00:30:09" arr_time="16:18:31">
				<route dist="960.0" trav_time="00:30:09">
					6 1 2 9 10 11 12 
				</route>
			</leg>
			<act type="work" link="120" facility="7" x="290.0" y="0.0" start_time="15:48:22" dur="04:00:00" end_time="19:48:22" />
			<leg mode="car" dep_time="19:48:22" trav_time="01:27:49" arr_time="21:16:11">
				<route dist="570.0" trav_time="01:27:49">
					5 6 1 2 3 
				</route>
			</leg>
			<act type="home" link="102" facility="5" x="200.0" y="0.0" start_time="19:48:22" dur="04:11:38" end_time="24:00:00" />
		</plan>

		<plan score="-1766.486666666667" selected="no">
			<act type="home" link="102" facility="5" x="200.0" y="0.0" start_time="00:00:00" dur="08:49:49" end_time="08:49:49" />
			<leg mode="car" dep_time="08:49:49" trav_time="00:00:13" arr_time="08:50:02">
				<route dist="90.0" trav_time="00:00:13">
					4 5 
				</route>
			</leg>
			<act type="work" link="104" facility="6" x="330.0" y="30.0" start_time="08:50:02" dur="02:35:39" end_time="11:25:41" />
			<leg mode="car" dep_time="11:25:41" trav_time="00:00:00" arr_time="11:25:41">
				<route dist="0.0" trav_time="00:00:00">
					
				</route>
			</leg>
			<act type="work" link="104" facility="6" x="330.0" y="30.0" start_time="11:25:41" dur="03:43:53" end_time="15:09:34" />
			<leg mode="car" dep_time="15:09:34" trav_time="00:25:34" arr_time="15:35:08">
				<route dist="540.0" trav_time="00:25:34">
					6 7 8 9 10 11 12 
				</route>
			</leg>
			<act type="work" link="120" facility="7" x="290.0" y="0.0" start_time="15:39:43" dur="05:12:55" end_time="20:52:38" />
			<leg mode="car" dep_time="20:52:38" trav_time="03:33:06" arr_time="24:25:44">
				<route dist="570.0" trav_time="03:33:06">
					5 6 1 2 3 
				</route>
			</leg>
			<act type="home" link="102" facility="5" x="200.0" y="0.0" start_time="22:20:27" />
		</plan>

		<plan score="-1360.332731333544" selected="yes">
			<act type="home" link="102" facility="5" x="200.0" y="0.0" start_time="00:00:00" dur="07:48:22" end_time="07:48:22" />
			<leg mode="car" dep_time="07:48:22" trav_time="00:00:13" arr_time="07:48:35">
				<route dist="90.0" trav_time="00:00:13">
					4 5 
				</route>
			</leg>
			<act type="work" link="104" facility="6" x="330.0" y="30.0" start_time="07:48:22" dur="04:00:00" end_time="11:48:22" />
			<leg mode="car" dep_time="11:48:22" trav_time="00:00:00" arr_time="11:48:22">
				<route dist="0.0" trav_time="00:00:00">
					
				</route>
			</leg>
			<act type="work" link="104" facility="6" x="330.0" y="30.0" start_time="11:48:22" dur="04:00:00" end_time="15:48:22" />
			<leg mode="car" dep_time="15:48:22" trav_time="01:21:22" arr_time="17:09:44">
				<route dist="960.0" trav_time="01:21:22">
					6 1 2 9 10 11 12 
				</route>
			</leg>
			<act type="work" link="120" facility="7" x="290.0" y="0.0" start_time="15:48:22" dur="04:00:00" end_time="19:48:22" />
			<leg mode="car" dep_time="19:48:22" trav_time="01:55:09" arr_time="21:43:31">
				<route dist="750.0" trav_time="01:55:09">
					5 6 7 8 1 2 3 
				</route>
			</leg>
			<act type="home" link="102" facility="5" x="200.0" y="0.0" start_time="19:48:22" dur="04:11:38" end_time="24:00:00" />
		</plan>

	</person>

<!-- ====================================================================== -->

</plans>
