2015-04-12 22:38:32,425  INFO Gbl:57 JVM: 1.7.0_75; Oracle Corporation; mixed mode; 64-bit
2015-04-12 22:38:32,426  INFO Gbl:61 OS: Linux; 3.13.0-49-generic; amd64
2015-04-12 22:38:32,426  INFO Gbl:64 CPU cores: 8
2015-04-12 22:38:32,426  INFO Gbl:65 max. Memory: 1749.5MB (1834483712B)
2015-04-12 22:38:32,426  INFO Gbl:103 MATSim-Build: r${buildNumber} (${timestamp})
2015-04-12 22:38:32,426  INFO AbstractController:101 Used Controler-Class: org.matsim.core.controler.Controler
2015-04-12 22:38:32,426  INFO SnapshotWriterRegistrar:41 OTFVis snapshots will not be supported, as OTFVis is not part of the classpath.
2015-04-12 22:38:32,427  INFO ScenarioLoaderImpl:136 loading scenario from base directory: /media/dgrether/data/work/matsim/matsim_workspace/contrib/signals/
2015-04-12 22:38:32,427  INFO ScenarioLoaderImpl:171 loading network from test/input/org/matsim/contrib/signals/DefaultPlanbasedSignalControlTest/network.xml
2015-04-12 22:38:32,427  INFO MatsimXmlParser:145 starting to parse xml from file test/input/org/matsim/contrib/signals/DefaultPlanbasedSignalControlTest/network.xml ...
2015-04-12 22:38:32,427  INFO IOUtils:110 loading file from classpath: test/input/org/matsim/contrib/signals/DefaultPlanbasedSignalControlTest/network.xml
2015-04-12 22:38:32,429  INFO MatsimNetworkReader:83 using network_v1-reader.
2015-04-12 22:38:32,429  INFO MatsimXmlParser:253 Trying to load http://www.matsim.org/files/dtd/network_v1.dtd. In some cases (e.g. network interface up but no connection), this may take a bit.
2015-04-12 22:38:32,459  INFO NetworkImpl:128  node # 1
2015-04-12 22:38:32,459  INFO NetworkImpl:128  node # 2
2015-04-12 22:38:32,459  INFO NetworkImpl:128  node # 4
2015-04-12 22:38:32,459  INFO NetworkImpl:124  link # 1
2015-04-12 22:38:32,460  INFO NetworkImpl:124  link # 2
2015-04-12 22:38:32,460  INFO NetworkImpl:124  link # 4
2015-04-12 22:38:32,461  INFO ScenarioLoaderImpl:201 no facilities file set in config, therefore not loading any facilities.  This is not a problem except if you are using facilities
2015-04-12 22:38:32,461  INFO ScenarioLoaderImpl:209 no facility-attributes file set in config, not loading any facility attributes
2015-04-12 22:38:32,461  INFO ScenarioLoaderImpl:230 no population file set in config, not able to load population
2015-04-12 22:38:32,461  INFO ScenarioLoaderImpl:238 no person-attributes file set in config, not loading any person attributes
2015-04-12 22:38:32,462 ERROR ScenarioLoaderImpl:317 SignalsData is no longer loaded by this method. 
 If you do not use the default signals initialization code that is provided in the contrib, make sure you add the following line after you have loaded the scenario: 
   scenario.addScenarioElement(SignalsData.ELEMENT_NAME, new SignalsScenarioLoader(config.signalSystems()).loadSignalsData()); 
 
2015-04-12 22:38:32,500 DEBUG Injector:70 Key[type=com.google.inject.Injector, annotation=[none]] -> ProviderInstanceBinding[key=Key[type=com.google.inject.Injector, annotation=[none]], source=[unknown source], scope=Scopes.NO_SCOPE, provider=Provider<Injector>]
2015-04-12 22:38:32,501 DEBUG Injector:70 Key[type=java.util.logging.Logger, annotation=[none]] -> ProviderInstanceBinding[key=Key[type=java.util.logging.Logger, annotation=[none]], source=[unknown source], scope=Scopes.NO_SCOPE, provider=Provider<Logger>]
2015-04-12 22:38:32,501 DEBUG Injector:70 Key[type=java.util.Set<org.matsim.core.events.handler.EventHandler>, annotation=[none]] -> ProviderInstanceBinding[key=Key[type=java.util.Set<org.matsim.core.events.handler.EventHandler>, annotation=[none]], source=org.matsim.core.controler.AbstractModule$1.configure(AbstractModule.java:64), scope=Scopes.NO_SCOPE, provider=Multibinder<org.matsim.core.events.handler.EventHandler>]
2015-04-12 22:38:32,501 DEBUG Injector:70 Key[type=java.util.Set<org.matsim.core.controler.listener.ControlerListener>, annotation=[none]] -> ProviderInstanceBinding[key=Key[type=java.util.Set<org.matsim.core.controler.listener.ControlerListener>, annotation=[none]], source=org.matsim.core.controler.AbstractModule$1.configure(AbstractModule.java:64), scope=Scopes.NO_SCOPE, provider=Multibinder<org.matsim.core.controler.listener.ControlerListener>]
2015-04-12 22:38:32,501 DEBUG Injector:70 Key[type=java.util.Set<java.util.Map$Entry<java.lang.String, com.google.inject.Provider<org.matsim.core.replanning.PlanStrategy>>>, annotation=[none]] -> ProviderInstanceBinding[key=Key[type=java.util.Set<java.util.Map$Entry<java.lang.String, com.google.inject.Provider<org.matsim.core.replanning.PlanStrategy>>>, annotation=[none]], source=org.matsim.core.controler.AbstractModule$1.configure(AbstractModule.java:64), scope=Scopes.NO_SCOPE, provider=Multibinder<java.util.Map$Entry<java.lang.String, com.google.inject.Provider<org.matsim.core.replanning.PlanStrategy>>>]
2015-04-12 22:38:32,501 DEBUG Injector:70 Key[type=java.util.Map<java.lang.String, com.google.inject.Provider<org.matsim.core.replanning.PlanStrategy>>, annotation=[none]] -> ProviderInstanceBinding[key=Key[type=java.util.Map<java.lang.String, com.google.inject.Provider<org.matsim.core.replanning.PlanStrategy>>, annotation=[none]], source=org.matsim.core.controler.AbstractModule$1.configure(AbstractModule.java:64), scope=Scopes.NO_SCOPE, provider=com.google.inject.multibindings.MapBinder$RealMapBinder$1@1210a97]
2015-04-12 22:38:32,501 DEBUG Injector:70 Key[type=java.util.Map<java.lang.String, org.matsim.core.replanning.PlanStrategy>, annotation=[none]] -> ProviderInstanceBinding[key=Key[type=java.util.Map<java.lang.String, org.matsim.core.replanning.PlanStrategy>, annotation=[none]], source=org.matsim.core.controler.AbstractModule$1.configure(AbstractModule.java:64), scope=Scopes.NO_SCOPE, provider=com.google.inject.multibindings.MapBinder$RealMapBinder$2@541b0eeb]
2015-04-12 22:38:32,502 DEBUG Injector:70 Key[type=java.util.Set<java.util.Map$Entry<java.lang.String, com.google.inject.Provider<org.matsim.core.replanning.selectors.GenericPlanSelector<org.matsim.api.core.v01.population.Plan, org.matsim.api.core.v01.population.Person>>>>, annotation=[none]] -> ProviderInstanceBinding[key=Key[type=java.util.Set<java.util.Map$Entry<java.lang.String, com.google.inject.Provider<org.matsim.core.replanning.selectors.GenericPlanSelector<org.matsim.api.core.v01.population.Plan, org.matsim.api.core.v01.population.Person>>>>, annotation=[none]], source=org.matsim.core.controler.AbstractModule$1.configure(AbstractModule.java:64), scope=Scopes.NO_SCOPE, provider=Multibinder<java.util.Map$Entry<java.lang.String, com.google.inject.Provider<org.matsim.core.replanning.selectors.GenericPlanSelector<org.matsim.api.core.v01.population.Plan, org.matsim.api.core.v01.population.Person>>>>]
2015-04-12 22:38:32,502 DEBUG Injector:70 Key[type=java.util.Map<java.lang.String, com.google.inject.Provider<org.matsim.core.replanning.selectors.GenericPlanSelector<org.matsim.api.core.v01.population.Plan, org.matsim.api.core.v01.population.Person>>>, annotation=[none]] -> ProviderInstanceBinding[key=Key[type=java.util.Map<java.lang.String, com.google.inject.Provider<org.matsim.core.replanning.selectors.GenericPlanSelector<org.matsim.api.core.v01.population.Plan, org.matsim.api.core.v01.population.Person>>>, annotation=[none]], source=org.matsim.core.controler.AbstractModule$1.configure(AbstractModule.java:64), scope=Scopes.NO_SCOPE, provider=com.google.inject.multibindings.MapBinder$RealMapBinder$1@56e1333c]
2015-04-12 22:38:32,502 DEBUG Injector:70 Key[type=java.util.Map<java.lang.String, org.matsim.core.replanning.selectors.GenericPlanSelector<org.matsim.api.core.v01.population.Plan, org.matsim.api.core.v01.population.Person>>, annotation=[none]] -> ProviderInstanceBinding[key=Key[type=java.util.Map<java.lang.String, org.matsim.core.replanning.selectors.GenericPlanSelector<org.matsim.api.core.v01.population.Plan, org.matsim.api.core.v01.population.Person>>, annotation=[none]], source=org.matsim.core.controler.AbstractModule$1.configure(AbstractModule.java:64), scope=Scopes.NO_SCOPE, provider=com.google.inject.multibindings.MapBinder$RealMapBinder$2@1ddaf92]
2015-04-12 22:38:32,502 DEBUG Injector:70 Key[type=org.matsim.api.core.v01.network.Network, annotation=[none]] -> ProviderKeyBinding[key=Key[type=org.matsim.api.core.v01.network.Network, annotation=[none]], source=org.matsim.core.scenario.ScenarioElementsModule.install(ScenarioElementsModule.java:38), scope=Scopes.NO_SCOPE, provider=Key[type=org.matsim.core.scenario.ScenarioElementsModule$NetworkProvider, annotation=[none]]]
2015-04-12 22:38:32,502 DEBUG Injector:70 Key[type=org.matsim.api.core.v01.population.Population, annotation=[none]] -> ProviderKeyBinding[key=Key[type=org.matsim.api.core.v01.population.Population, annotation=[none]], source=org.matsim.core.scenario.ScenarioElementsModule.install(ScenarioElementsModule.java:39), scope=Scopes.NO_SCOPE, provider=Key[type=org.matsim.core.scenario.ScenarioElementsModule$PopulationProvider, annotation=[none]]]
2015-04-12 22:38:32,502 DEBUG Injector:70 Key[type=org.matsim.core.trafficmonitoring.TravelTimeCalculator, annotation=[none]] -> ProviderKeyBinding[key=Key[type=org.matsim.core.trafficmonitoring.TravelTimeCalculator, annotation=[none]], source=org.matsim.core.trafficmonitoring.TravelTimeCalculatorModule.install(TravelTimeCalculatorModule.java:51), scope=Scopes.SINGLETON, provider=Key[type=org.matsim.core.trafficmonitoring.TravelTimeCalculatorModule$TravelTimeCalculatorProvider, annotation=[none]]]
2015-04-12 22:38:32,502 DEBUG Injector:70 Key[type=org.matsim.core.events.handler.EventHandler, annotation=@com.google.inject.multibindings.Element(setName=,uniqueId=252)] -> LinkedKeyBinding[key=Key[type=org.matsim.core.events.handler.EventHandler, annotation=@com.google.inject.multibindings.Element(setName=,uniqueId=252)], source=org.matsim.core.trafficmonitoring.TravelTimeCalculatorModule.install(TravelTimeCalculatorModule.java:55), scope=Scopes.NO_SCOPE, target=Key[type=org.matsim.core.trafficmonitoring.TravelTimeCalculator, annotation=[none]]]
2015-04-12 22:38:32,502 DEBUG Injector:70 Key[type=org.matsim.core.router.util.TravelTime, annotation=[none]] -> ProviderKeyBinding[key=Key[type=org.matsim.core.router.util.TravelTime, annotation=[none]], source=org.matsim.core.trafficmonitoring.TravelTimeCalculatorModule.install(TravelTimeCalculatorModule.java:62), scope=Scopes.NO_SCOPE, provider=Key[type=org.matsim.core.trafficmonitoring.TravelTimeCalculatorModule$TravelTimeProvider, annotation=[none]]]
2015-04-12 22:38:32,502 DEBUG Injector:70 Key[type=org.matsim.core.router.util.LinkToLinkTravelTime, annotation=[none]] -> ProviderKeyBinding[key=Key[type=org.matsim.core.router.util.LinkToLinkTravelTime, annotation=[none]], source=org.matsim.core.trafficmonitoring.TravelTimeCalculatorModule.install(TravelTimeCalculatorModule.java:63), scope=Scopes.NO_SCOPE, provider=Key[type=org.matsim.core.trafficmonitoring.TravelTimeCalculatorModule$LinkToLinkTravelTimeProvider, annotation=[none]]]
2015-04-12 22:38:32,503 DEBUG Injector:70 Key[type=org.matsim.core.router.costcalculators.TravelDisutilityFactory, annotation=[none]] -> LinkedKeyBinding[key=Key[type=org.matsim.core.router.costcalculators.TravelDisutilityFactory, annotation=[none]], source=org.matsim.core.router.costcalculators.TravelDisutilityModule.install(TravelDisutilityModule.java:37), scope=Scopes.NO_SCOPE, target=Key[type=org.matsim.core.router.costcalculators.TravelTimeAndDistanceBasedTravelDisutilityFactory, annotation=[none]]]
2015-04-12 22:38:32,503 DEBUG Injector:70 Key[type=org.matsim.core.router.util.TravelDisutility, annotation=[none]] -> ProviderKeyBinding[key=Key[type=org.matsim.core.router.util.TravelDisutility, annotation=[none]], source=org.matsim.core.router.costcalculators.TravelDisutilityModule.install(TravelDisutilityModule.java:38), scope=Scopes.NO_SCOPE, provider=Key[type=org.matsim.core.router.costcalculators.TravelDisutilityModule$TravelDisutilityProvider, annotation=[none]]]
2015-04-12 22:38:32,503 DEBUG Injector:70 Key[type=org.matsim.core.scoring.ScoringFunctionFactory, annotation=[none]] -> ProviderInstanceBinding[key=Key[type=org.matsim.core.scoring.ScoringFunctionFactory, annotation=[none]], source=org.matsim.core.scoring.functions.CharyparNagelScoringFunctionModule.install(CharyparNagelScoringFunctionModule.java:37), scope=Scopes.NO_SCOPE, provider=org.matsim.core.controler.AbstractModule$5@5fb2943c]
2015-04-12 22:38:32,503 DEBUG Injector:70 Key[type=org.matsim.core.router.util.LeastCostPathCalculatorFactory, annotation=[none]] -> ProviderKeyBinding[key=Key[type=org.matsim.core.router.util.LeastCostPathCalculatorFactory, annotation=[none]], source=org.matsim.core.router.LeastCostPathCalculatorModule.install(LeastCostPathCalculatorModule.java:39), scope=Scopes.SINGLETON, provider=Key[type=org.matsim.core.router.LeastCostPathCalculatorModule$DefaultLeastCostPathCalculatorFactoryProvider, annotation=[none]]]
2015-04-12 22:38:32,503 DEBUG Injector:70 Key[type=org.matsim.pt.router.TransitRouterFactory, annotation=[none]] -> LinkedKeyBinding[key=Key[type=org.matsim.pt.router.TransitRouterFactory, annotation=[none]], source=org.matsim.pt.router.TransitRouterModule.install(TransitRouterModule.java:39), scope=Scopes.NO_SCOPE, target=Key[type=org.matsim.pt.router.TransitRouterModule$DummyTransitRouterFactory, annotation=[none]]]
2015-04-12 22:38:32,503 DEBUG Injector:70 Key[type=org.matsim.core.router.TripRouterFactory, annotation=[none]] -> LinkedKeyBinding[key=Key[type=org.matsim.core.router.TripRouterFactory, annotation=[none]], source=org.matsim.core.router.TripRouterFactoryModule.install(TripRouterFactoryModule.java:36), scope=Scopes.SINGLETON, target=Key[type=org.matsim.core.router.DefaultTripRouterFactoryImpl, annotation=[none]]]
2015-04-12 22:38:32,503 DEBUG Injector:70 Key[type=org.matsim.core.router.TripRouter, annotation=[none]] -> ProviderKeyBinding[key=Key[type=org.matsim.core.router.TripRouter, annotation=[none]], source=org.matsim.core.router.TripRouterModule.install(TripRouterModule.java:37), scope=Scopes.NO_SCOPE, provider=Key[type=org.matsim.core.router.TripRouterModule$RealTripRouterProvider, annotation=[none]]]
2015-04-12 22:38:32,503 DEBUG Injector:70 Key[type=java.util.Map$Entry<java.lang.String, com.google.inject.Provider<org.matsim.core.replanning.selectors.GenericPlanSelector<org.matsim.api.core.v01.population.Plan, org.matsim.api.core.v01.population.Person>>>, annotation=@com.google.inject.multibindings.Element(setName=,uniqueId=254)] -> InstanceBinding[key=Key[type=java.util.Map$Entry<java.lang.String, com.google.inject.Provider<org.matsim.core.replanning.selectors.GenericPlanSelector<org.matsim.api.core.v01.population.Plan, org.matsim.api.core.v01.population.Person>>>, annotation=@com.google.inject.multibindings.Element(setName=,uniqueId=254)], source=org.matsim.core.replanning.DefaultPlanStrategiesModule.install(DefaultPlanStrategiesModule.java:46), instance=MapEntry(WorstPlanSelector, Provider<org.matsim.core.replanning.selectors.GenericPlanSelector<org.matsim.api.core.v01.population.Plan, org.matsim.api.core.v01.population.Person>>)]
2015-04-12 22:38:32,503 DEBUG Injector:70 Key[type=org.matsim.core.replanning.selectors.GenericPlanSelector<org.matsim.api.core.v01.population.Plan, org.matsim.api.core.v01.population.Person>, annotation=@com.google.inject.multibindings.Element(setName=,uniqueId=253)] -> LinkedKeyBinding[key=Key[type=org.matsim.core.replanning.selectors.GenericPlanSelector<org.matsim.api.core.v01.population.Plan, org.matsim.api.core.v01.population.Person>, annotation=@com.google.inject.multibindings.Element(setName=,uniqueId=253)], source=org.matsim.core.replanning.DefaultPlanStrategiesModule.install(DefaultPlanStrategiesModule.java:46), scope=Scopes.NO_SCOPE, target=Key[type=org.matsim.core.replanning.selectors.WorstPlanForRemovalSelector, annotation=[none]]]
2015-04-12 22:38:32,504 DEBUG Injector:70 Key[type=java.util.Map$Entry<java.lang.String, com.google.inject.Provider<org.matsim.core.replanning.selectors.GenericPlanSelector<org.matsim.api.core.v01.population.Plan, org.matsim.api.core.v01.population.Person>>>, annotation=@com.google.inject.multibindings.Element(setName=,uniqueId=256)] -> InstanceBinding[key=Key[type=java.util.Map$Entry<java.lang.String, com.google.inject.Provider<org.matsim.core.replanning.selectors.GenericPlanSelector<org.matsim.api.core.v01.population.Plan, org.matsim.api.core.v01.population.Person>>>, annotation=@com.google.inject.multibindings.Element(setName=,uniqueId=256)], source=org.matsim.core.replanning.DefaultPlanStrategiesModule.install(DefaultPlanStrategiesModule.java:47), instance=MapEntry(SelectRandom, Provider<org.matsim.core.replanning.selectors.GenericPlanSelector<org.matsim.api.core.v01.population.Plan, org.matsim.api.core.v01.population.Person>>)]
2015-04-12 22:38:32,504 DEBUG Injector:70 Key[type=org.matsim.core.replanning.selectors.GenericPlanSelector<org.matsim.api.core.v01.population.Plan, org.matsim.api.core.v01.population.Person>, annotation=@com.google.inject.multibindings.Element(setName=,uniqueId=255)] -> LinkedKeyBinding[key=Key[type=org.matsim.core.replanning.selectors.GenericPlanSelector<org.matsim.api.core.v01.population.Plan, org.matsim.api.core.v01.population.Person>, annotation=@com.google.inject.multibindings.Element(setName=,uniqueId=255)], source=org.matsim.core.replanning.DefaultPlanStrategiesModule.install(DefaultPlanStrategiesModule.java:47), scope=Scopes.NO_SCOPE, target=Key[type=org.matsim.core.replanning.selectors.RandomPlanSelector<org.matsim.api.core.v01.population.Plan, org.matsim.api.core.v01.population.Person>, annotation=[none]]]
2015-04-12 22:38:32,504 DEBUG Injector:70 Key[type=java.util.Map$Entry<java.lang.String, com.google.inject.Provider<org.matsim.core.replanning.selectors.GenericPlanSelector<org.matsim.api.core.v01.population.Plan, org.matsim.api.core.v01.population.Person>>>, annotation=@com.google.inject.multibindings.Element(setName=,uniqueId=258)] -> InstanceBinding[key=Key[type=java.util.Map$Entry<java.lang.String, com.google.inject.Provider<org.matsim.core.replanning.selectors.GenericPlanSelector<org.matsim.api.core.v01.population.Plan, org.matsim.api.core.v01.population.Person>>>, annotation=@com.google.inject.multibindings.Element(setName=,uniqueId=258)], source=org.matsim.core.replanning.DefaultPlanStrategiesModule.install(DefaultPlanStrategiesModule.java:48), instance=MapEntry(SelectExpBetaForRemoval, Provider<org.matsim.core.replanning.selectors.GenericPlanSelector<org.matsim.api.core.v01.population.Plan, org.matsim.api.core.v01.population.Person>>)]
2015-04-12 22:38:32,504 DEBUG Injector:70 Key[type=org.matsim.core.replanning.selectors.GenericPlanSelector<org.matsim.api.core.v01.population.Plan, org.matsim.api.core.v01.population.Person>, annotation=@com.google.inject.multibindings.Element(setName=,uniqueId=257)] -> ProviderKeyBinding[key=Key[type=org.matsim.core.replanning.selectors.GenericPlanSelector<org.matsim.api.core.v01.population.Plan, org.matsim.api.core.v01.population.Person>, annotation=@com.google.inject.multibindings.Element(setName=,uniqueId=257)], source=org.matsim.core.replanning.DefaultPlanStrategiesModule.install(DefaultPlanStrategiesModule.java:48), scope=Scopes.NO_SCOPE, provider=Key[type=org.matsim.core.replanning.DefaultPlanStrategiesModule$ExpBetaPlanSelectorForRemoval, annotation=[none]]]
2015-04-12 22:38:32,504 DEBUG Injector:70 Key[type=java.util.Map$Entry<java.lang.String, com.google.inject.Provider<org.matsim.core.replanning.selectors.GenericPlanSelector<org.matsim.api.core.v01.population.Plan, org.matsim.api.core.v01.population.Person>>>, annotation=@com.google.inject.multibindings.Element(setName=,uniqueId=260)] -> InstanceBinding[key=Key[type=java.util.Map$Entry<java.lang.String, com.google.inject.Provider<org.matsim.core.replanning.selectors.GenericPlanSelector<org.matsim.api.core.v01.population.Plan, org.matsim.api.core.v01.population.Person>>>, annotation=@com.google.inject.multibindings.Element(setName=,uniqueId=260)], source=org.matsim.core.replanning.DefaultPlanStrategiesModule.install(DefaultPlanStrategiesModule.java:49), instance=MapEntry(ChangeExpBetaForRemoval, Provider<org.matsim.core.replanning.selectors.GenericPlanSelector<org.matsim.api.core.v01.population.Plan, org.matsim.api.core.v01.population.Person>>)]
2015-04-12 22:38:32,504 DEBUG Injector:70 Key[type=org.matsim.core.replanning.selectors.GenericPlanSelector<org.matsim.api.core.v01.population.Plan, org.matsim.api.core.v01.population.Person>, annotation=@com.google.inject.multibindings.Element(setName=,uniqueId=259)] -> ProviderKeyBinding[key=Key[type=org.matsim.core.replanning.selectors.GenericPlanSelector<org.matsim.api.core.v01.population.Plan, org.matsim.api.core.v01.population.Person>, annotation=@com.google.inject.multibindings.Element(setName=,uniqueId=259)], source=org.matsim.core.replanning.DefaultPlanStrategiesModule.install(DefaultPlanStrategiesModule.java:49), scope=Scopes.NO_SCOPE, provider=Key[type=org.matsim.core.replanning.DefaultPlanStrategiesModule$ExpBetaPlanChangerForRemoval, annotation=[none]]]
2015-04-12 22:38:32,504 DEBUG Injector:70 Key[type=java.util.Map$Entry<java.lang.String, com.google.inject.Provider<org.matsim.core.replanning.selectors.GenericPlanSelector<org.matsim.api.core.v01.population.Plan, org.matsim.api.core.v01.population.Person>>>, annotation=@com.google.inject.multibindings.Element(setName=,uniqueId=262)] -> InstanceBinding[key=Key[type=java.util.Map$Entry<java.lang.String, com.google.inject.Provider<org.matsim.core.replanning.selectors.GenericPlanSelector<org.matsim.api.core.v01.population.Plan, org.matsim.api.core.v01.population.Person>>>, annotation=@com.google.inject.multibindings.Element(setName=,uniqueId=262)], source=org.matsim.core.replanning.DefaultPlanStrategiesModule.install(DefaultPlanStrategiesModule.java:50), instance=MapEntry(PathSizeLogitSelectorForRemoval, Provider<org.matsim.core.replanning.selectors.GenericPlanSelector<org.matsim.api.core.v01.population.Plan, org.matsim.api.core.v01.population.Person>>)]
2015-04-12 22:38:32,504 DEBUG Injector:70 Key[type=org.matsim.core.replanning.selectors.GenericPlanSelector<org.matsim.api.core.v01.population.Plan, org.matsim.api.core.v01.population.Person>, annotation=@com.google.inject.multibindings.Element(setName=,uniqueId=261)] -> ProviderKeyBinding[key=Key[type=org.matsim.core.replanning.selectors.GenericPlanSelector<org.matsim.api.core.v01.population.Plan, org.matsim.api.core.v01.population.Person>, annotation=@com.google.inject.multibindings.Element(setName=,uniqueId=261)], source=org.matsim.core.replanning.DefaultPlanStrategiesModule.install(DefaultPlanStrategiesModule.java:50), scope=Scopes.NO_SCOPE, provider=Key[type=org.matsim.core.replanning.DefaultPlanStrategiesModule$PathSizeLogitSelectorForRemoval, annotation=[none]]]
2015-04-12 22:38:32,505 DEBUG Injector:70 Key[type=java.util.Map$Entry<java.lang.String, com.google.inject.Provider<org.matsim.core.replanning.PlanStrategy>>, annotation=@com.google.inject.multibindings.Element(setName=,uniqueId=264)] -> InstanceBinding[key=Key[type=java.util.Map$Entry<java.lang.String, com.google.inject.Provider<org.matsim.core.replanning.PlanStrategy>>, annotation=@com.google.inject.multibindings.Element(setName=,uniqueId=264)], source=org.matsim.core.replanning.DefaultPlanStrategiesModule.install(DefaultPlanStrategiesModule.java:53), instance=MapEntry(KeepLastSelected, Provider<org.matsim.core.replanning.PlanStrategy>)]
2015-04-12 22:38:32,505 DEBUG Injector:70 Key[type=org.matsim.core.replanning.PlanStrategy, annotation=@com.google.inject.multibindings.Element(setName=,uniqueId=263)] -> ProviderKeyBinding[key=Key[type=org.matsim.core.replanning.PlanStrategy, annotation=@com.google.inject.multibindings.Element(setName=,uniqueId=263)], source=org.matsim.core.replanning.DefaultPlanStrategiesModule.install(DefaultPlanStrategiesModule.java:53), scope=Scopes.NO_SCOPE, provider=Key[type=org.matsim.core.replanning.modules.KeepLastSelectedPlanStrategyFactory, annotation=[none]]]
2015-04-12 22:38:32,505 DEBUG Injector:70 Key[type=java.util.Map$Entry<java.lang.String, com.google.inject.Provider<org.matsim.core.replanning.PlanStrategy>>, annotation=@com.google.inject.multibindings.Element(setName=,uniqueId=266)] -> InstanceBinding[key=Key[type=java.util.Map$Entry<java.lang.String, com.google.inject.Provider<org.matsim.core.replanning.PlanStrategy>>, annotation=@com.google.inject.multibindings.Element(setName=,uniqueId=266)], source=org.matsim.core.replanning.DefaultPlanStrategiesModule.install(DefaultPlanStrategiesModule.java:54), instance=MapEntry(BestScore, Provider<org.matsim.core.replanning.PlanStrategy>)]
2015-04-12 22:38:32,505 DEBUG Injector:70 Key[type=org.matsim.core.replanning.PlanStrategy, annotation=@com.google.inject.multibindings.Element(setName=,uniqueId=265)] -> ProviderKeyBinding[key=Key[type=org.matsim.core.replanning.PlanStrategy, annotation=@com.google.inject.multibindings.Element(setName=,uniqueId=265)], source=org.matsim.core.replanning.DefaultPlanStrategiesModule.install(DefaultPlanStrategiesModule.java:54), scope=Scopes.NO_SCOPE, provider=Key[type=org.matsim.core.replanning.modules.SelectBestPlanStrategyFactory, annotation=[none]]]
2015-04-12 22:38:32,505 DEBUG Injector:70 Key[type=java.util.Map$Entry<java.lang.String, com.google.inject.Provider<org.matsim.core.replanning.PlanStrategy>>, annotation=@com.google.inject.multibindings.Element(setName=,uniqueId=268)] -> InstanceBinding[key=Key[type=java.util.Map$Entry<java.lang.String, com.google.inject.Provider<org.matsim.core.replanning.PlanStrategy>>, annotation=@com.google.inject.multibindings.Element(setName=,uniqueId=268)], source=org.matsim.core.replanning.DefaultPlanStrategiesModule.install(DefaultPlanStrategiesModule.java:55), instance=MapEntry(SelectExpBeta, Provider<org.matsim.core.replanning.PlanStrategy>)]
2015-04-12 22:38:32,505 DEBUG Injector:70 Key[type=org.matsim.core.replanning.PlanStrategy, annotation=@com.google.inject.multibindings.Element(setName=,uniqueId=267)] -> ProviderKeyBinding[key=Key[type=org.matsim.core.replanning.PlanStrategy, annotation=@com.google.inject.multibindings.Element(setName=,uniqueId=267)], source=org.matsim.core.replanning.DefaultPlanStrategiesModule.install(DefaultPlanStrategiesModule.java:55), scope=Scopes.NO_SCOPE, provider=Key[type=org.matsim.core.replanning.modules.SelectExpBetaPlanStrategyFactory, annotation=[none]]]
2015-04-12 22:38:32,505 DEBUG Injector:70 Key[type=java.util.Map$Entry<java.lang.String, com.google.inject.Provider<org.matsim.core.replanning.PlanStrategy>>, annotation=@com.google.inject.multibindings.Element(setName=,uniqueId=270)] -> InstanceBinding[key=Key[type=java.util.Map$Entry<java.lang.String, com.google.inject.Provider<org.matsim.core.replanning.PlanStrategy>>, annotation=@com.google.inject.multibindings.Element(setName=,uniqueId=270)], source=org.matsim.core.replanning.DefaultPlanStrategiesModule.install(DefaultPlanStrategiesModule.java:56), instance=MapEntry(ChangeExpBeta, Provider<org.matsim.core.replanning.PlanStrategy>)]
2015-04-12 22:38:32,505 DEBUG Injector:70 Key[type=org.matsim.core.replanning.PlanStrategy, annotation=@com.google.inject.multibindings.Element(setName=,uniqueId=269)] -> ProviderKeyBinding[key=Key[type=org.matsim.core.replanning.PlanStrategy, annotation=@com.google.inject.multibindings.Element(setName=,uniqueId=269)], source=org.matsim.core.replanning.DefaultPlanStrategiesModule.install(DefaultPlanStrategiesModule.java:56), scope=Scopes.NO_SCOPE, provider=Key[type=org.matsim.core.replanning.modules.ChangeExpBetaPlanStrategyFactory, annotation=[none]]]
2015-04-12 22:38:32,506 DEBUG Injector:70 Key[type=java.util.Map$Entry<java.lang.String, com.google.inject.Provider<org.matsim.core.replanning.PlanStrategy>>, annotation=@com.google.inject.multibindings.Element(setName=,uniqueId=272)] -> InstanceBinding[key=Key[type=java.util.Map$Entry<java.lang.String, com.google.inject.Provider<org.matsim.core.replanning.PlanStrategy>>, annotation=@com.google.inject.multibindings.Element(setName=,uniqueId=272)], source=org.matsim.core.replanning.DefaultPlanStrategiesModule.install(DefaultPlanStrategiesModule.java:57), instance=MapEntry(SelectRandom, Provider<org.matsim.core.replanning.PlanStrategy>)]
2015-04-12 22:38:32,506 DEBUG Injector:70 Key[type=org.matsim.core.replanning.PlanStrategy, annotation=@com.google.inject.multibindings.Element(setName=,uniqueId=271)] -> ProviderKeyBinding[key=Key[type=org.matsim.core.replanning.PlanStrategy, annotation=@com.google.inject.multibindings.Element(setName=,uniqueId=271)], source=org.matsim.core.replanning.DefaultPlanStrategiesModule.install(DefaultPlanStrategiesModule.java:57), scope=Scopes.NO_SCOPE, provider=Key[type=org.matsim.core.replanning.modules.SelectRandomStrategyFactory, annotation=[none]]]
2015-04-12 22:38:32,506 DEBUG Injector:70 Key[type=java.util.Map$Entry<java.lang.String, com.google.inject.Provider<org.matsim.core.replanning.PlanStrategy>>, annotation=@com.google.inject.multibindings.Element(setName=,uniqueId=274)] -> InstanceBinding[key=Key[type=java.util.Map$Entry<java.lang.String, com.google.inject.Provider<org.matsim.core.replanning.PlanStrategy>>, annotation=@com.google.inject.multibindings.Element(setName=,uniqueId=274)], source=org.matsim.core.replanning.DefaultPlanStrategiesModule.install(DefaultPlanStrategiesModule.java:58), instance=MapEntry(SelectPathSizeLogit, Provider<org.matsim.core.replanning.PlanStrategy>)]
2015-04-12 22:38:32,506 DEBUG Injector:70 Key[type=org.matsim.core.replanning.PlanStrategy, annotation=@com.google.inject.multibindings.Element(setName=,uniqueId=273)] -> ProviderKeyBinding[key=Key[type=org.matsim.core.replanning.PlanStrategy, annotation=@com.google.inject.multibindings.Element(setName=,uniqueId=273)], source=org.matsim.core.replanning.DefaultPlanStrategiesModule.install(DefaultPlanStrategiesModule.java:58), scope=Scopes.NO_SCOPE, provider=Key[type=org.matsim.core.replanning.modules.SelectPathSizeLogitStrategyFactory, annotation=[none]]]
2015-04-12 22:38:32,506 DEBUG Injector:70 Key[type=java.util.Map$Entry<java.lang.String, com.google.inject.Provider<org.matsim.core.replanning.PlanStrategy>>, annotation=@com.google.inject.multibindings.Element(setName=,uniqueId=276)] -> InstanceBinding[key=Key[type=java.util.Map$Entry<java.lang.String, com.google.inject.Provider<org.matsim.core.replanning.PlanStrategy>>, annotation=@com.google.inject.multibindings.Element(setName=,uniqueId=276)], source=org.matsim.core.replanning.DefaultPlanStrategiesModule.install(DefaultPlanStrategiesModule.java:62), instance=MapEntry(ReRoute, Provider<org.matsim.core.replanning.PlanStrategy>)]
2015-04-12 22:38:32,506 DEBUG Injector:70 Key[type=org.matsim.core.replanning.PlanStrategy, annotation=@com.google.inject.multibindings.Element(setName=,uniqueId=275)] -> ProviderKeyBinding[key=Key[type=org.matsim.core.replanning.PlanStrategy, annotation=@com.google.inject.multibindings.Element(setName=,uniqueId=275)], source=org.matsim.core.replanning.DefaultPlanStrategiesModule.install(DefaultPlanStrategiesModule.java:62), scope=Scopes.NO_SCOPE, provider=Key[type=org.matsim.core.replanning.modules.ReRoutePlanStrategyFactory, annotation=[none]]]
2015-04-12 22:38:32,506 DEBUG Injector:70 Key[type=java.util.Map$Entry<java.lang.String, com.google.inject.Provider<org.matsim.core.replanning.PlanStrategy>>, annotation=@com.google.inject.multibindings.Element(setName=,uniqueId=278)] -> InstanceBinding[key=Key[type=java.util.Map$Entry<java.lang.String, com.google.inject.Provider<org.matsim.core.replanning.PlanStrategy>>, annotation=@com.google.inject.multibindings.Element(setName=,uniqueId=278)], source=org.matsim.core.replanning.DefaultPlanStrategiesModule.install(DefaultPlanStrategiesModule.java:63), instance=MapEntry(TimeAllocationMutator, Provider<org.matsim.core.replanning.PlanStrategy>)]
2015-04-12 22:38:32,507 DEBUG Injector:70 Key[type=org.matsim.core.replanning.PlanStrategy, annotation=@com.google.inject.multibindings.Element(setName=,uniqueId=277)] -> ProviderKeyBinding[key=Key[type=org.matsim.core.replanning.PlanStrategy, annotation=@com.google.inject.multibindings.Element(setName=,uniqueId=277)], source=org.matsim.core.replanning.DefaultPlanStrategiesModule.install(DefaultPlanStrategiesModule.java:63), scope=Scopes.NO_SCOPE, provider=Key[type=org.matsim.core.replanning.modules.TimeAllocationMutatorPlanStrategyFactory, annotation=[none]]]
2015-04-12 22:38:32,507 DEBUG Injector:70 Key[type=java.util.Map$Entry<java.lang.String, com.google.inject.Provider<org.matsim.core.replanning.PlanStrategy>>, annotation=@com.google.inject.multibindings.Element(setName=,uniqueId=280)] -> InstanceBinding[key=Key[type=java.util.Map$Entry<java.lang.String, com.google.inject.Provider<org.matsim.core.replanning.PlanStrategy>>, annotation=@com.google.inject.multibindings.Element(setName=,uniqueId=280)], source=org.matsim.core.replanning.DefaultPlanStrategiesModule.install(DefaultPlanStrategiesModule.java:64), instance=MapEntry(TimeAllocationMutator_ReRoute, Provider<org.matsim.core.replanning.PlanStrategy>)]
2015-04-12 22:38:32,507 DEBUG Injector:70 Key[type=org.matsim.core.replanning.PlanStrategy, annotation=@com.google.inject.multibindings.Element(setName=,uniqueId=279)] -> ProviderKeyBinding[key=Key[type=org.matsim.core.replanning.PlanStrategy, annotation=@com.google.inject.multibindings.Element(setName=,uniqueId=279)], source=org.matsim.core.replanning.DefaultPlanStrategiesModule.install(DefaultPlanStrategiesModule.java:64), scope=Scopes.NO_SCOPE, provider=Key[type=org.matsim.core.replanning.modules.TimeAllocationMutatorReRoutePlanStrategyFactory, annotation=[none]]]
2015-04-12 22:38:32,507 DEBUG Injector:70 Key[type=java.util.Map$Entry<java.lang.String, com.google.inject.Provider<org.matsim.core.replanning.PlanStrategy>>, annotation=@com.google.inject.multibindings.Element(setName=,uniqueId=282)] -> InstanceBinding[key=Key[type=java.util.Map$Entry<java.lang.String, com.google.inject.Provider<org.matsim.core.replanning.PlanStrategy>>, annotation=@com.google.inject.multibindings.Element(setName=,uniqueId=282)], source=org.matsim.core.replanning.DefaultPlanStrategiesModule.install(DefaultPlanStrategiesModule.java:65), instance=MapEntry(ChangeLegMode, Provider<org.matsim.core.replanning.PlanStrategy>)]
2015-04-12 22:38:32,508 DEBUG Injector:70 Key[type=org.matsim.core.replanning.PlanStrategy, annotation=@com.google.inject.multibindings.Element(setName=,uniqueId=281)] -> ProviderKeyBinding[key=Key[type=org.matsim.core.replanning.PlanStrategy, annotation=@com.google.inject.multibindings.Element(setName=,uniqueId=281)], source=org.matsim.core.replanning.DefaultPlanStrategiesModule.install(DefaultPlanStrategiesModule.java:65), scope=Scopes.NO_SCOPE, provider=Key[type=org.matsim.core.replanning.modules.ChangeLegModeStrategyFactory, annotation=[none]]]
2015-04-12 22:38:32,508 DEBUG Injector:70 Key[type=java.util.Map$Entry<java.lang.String, com.google.inject.Provider<org.matsim.core.replanning.PlanStrategy>>, annotation=@com.google.inject.multibindings.Element(setName=,uniqueId=284)] -> InstanceBinding[key=Key[type=java.util.Map$Entry<java.lang.String, com.google.inject.Provider<org.matsim.core.replanning.PlanStrategy>>, annotation=@com.google.inject.multibindings.Element(setName=,uniqueId=284)], source=org.matsim.core.replanning.DefaultPlanStrategiesModule.install(DefaultPlanStrategiesModule.java:66), instance=MapEntry(ChangeSingleLegMode, Provider<org.matsim.core.replanning.PlanStrategy>)]
2015-04-12 22:38:32,508 DEBUG Injector:70 Key[type=org.matsim.core.replanning.PlanStrategy, annotation=@com.google.inject.multibindings.Element(setName=,uniqueId=283)] -> ProviderKeyBinding[key=Key[type=org.matsim.core.replanning.PlanStrategy, annotation=@com.google.inject.multibindings.Element(setName=,uniqueId=283)], source=org.matsim.core.replanning.DefaultPlanStrategiesModule.install(DefaultPlanStrategiesModule.java:66), scope=Scopes.NO_SCOPE, provider=Key[type=org.matsim.core.replanning.modules.ChangeSingleLegModeStrategyFactory, annotation=[none]]]
2015-04-12 22:38:32,508 DEBUG Injector:70 Key[type=java.util.Map$Entry<java.lang.String, com.google.inject.Provider<org.matsim.core.replanning.PlanStrategy>>, annotation=@com.google.inject.multibindings.Element(setName=,uniqueId=286)] -> InstanceBinding[key=Key[type=java.util.Map$Entry<java.lang.String, com.google.inject.Provider<org.matsim.core.replanning.PlanStrategy>>, annotation=@com.google.inject.multibindings.Element(setName=,uniqueId=286)], source=org.matsim.core.replanning.DefaultPlanStrategiesModule.install(DefaultPlanStrategiesModule.java:67), instance=MapEntry(ChangeSingleTripMode, Provider<org.matsim.core.replanning.PlanStrategy>)]
2015-04-12 22:38:32,508 DEBUG Injector:70 Key[type=org.matsim.core.replanning.PlanStrategy, annotation=@com.google.inject.multibindings.Element(setName=,uniqueId=285)] -> ProviderKeyBinding[key=Key[type=org.matsim.core.replanning.PlanStrategy, annotation=@com.google.inject.multibindings.Element(setName=,uniqueId=285)], source=org.matsim.core.replanning.DefaultPlanStrategiesModule.install(DefaultPlanStrategiesModule.java:67), scope=Scopes.NO_SCOPE, provider=Key[type=org.matsim.core.replanning.modules.ChangeSingleTripModeStrategyFactory, annotation=[none]]]
2015-04-12 22:38:32,508 DEBUG Injector:70 Key[type=java.util.Map$Entry<java.lang.String, com.google.inject.Provider<org.matsim.core.replanning.PlanStrategy>>, annotation=@com.google.inject.multibindings.Element(setName=,uniqueId=288)] -> InstanceBinding[key=Key[type=java.util.Map$Entry<java.lang.String, com.google.inject.Provider<org.matsim.core.replanning.PlanStrategy>>, annotation=@com.google.inject.multibindings.Element(setName=,uniqueId=288)], source=org.matsim.core.replanning.DefaultPlanStrategiesModule.install(DefaultPlanStrategiesModule.java:68), instance=MapEntry(SubtourModeChoice, Provider<org.matsim.core.replanning.PlanStrategy>)]
2015-04-12 22:38:32,509 DEBUG Injector:70 Key[type=org.matsim.core.replanning.PlanStrategy, annotation=@com.google.inject.multibindings.Element(setName=,uniqueId=287)] -> ProviderKeyBinding[key=Key[type=org.matsim.core.replanning.PlanStrategy, annotation=@com.google.inject.multibindings.Element(setName=,uniqueId=287)], source=org.matsim.core.replanning.DefaultPlanStrategiesModule.install(DefaultPlanStrategiesModule.java:68), scope=Scopes.NO_SCOPE, provider=Key[type=org.matsim.core.replanning.modules.SubtourModeChoiceStrategyFactory, annotation=[none]]]
2015-04-12 22:38:32,509 DEBUG Injector:70 Key[type=java.util.Map$Entry<java.lang.String, com.google.inject.Provider<org.matsim.core.replanning.PlanStrategy>>, annotation=@com.google.inject.multibindings.Element(setName=,uniqueId=290)] -> InstanceBinding[key=Key[type=java.util.Map$Entry<java.lang.String, com.google.inject.Provider<org.matsim.core.replanning.PlanStrategy>>, annotation=@com.google.inject.multibindings.Element(setName=,uniqueId=290)], source=org.matsim.core.replanning.DefaultPlanStrategiesModule.install(DefaultPlanStrategiesModule.java:69), instance=MapEntry(ChangeTripMode, Provider<org.matsim.core.replanning.PlanStrategy>)]
2015-04-12 22:38:32,509 DEBUG Injector:70 Key[type=org.matsim.core.replanning.PlanStrategy, annotation=@com.google.inject.multibindings.Element(setName=,uniqueId=289)] -> ProviderKeyBinding[key=Key[type=org.matsim.core.replanning.PlanStrategy, annotation=@com.google.inject.multibindings.Element(setName=,uniqueId=289)], source=org.matsim.core.replanning.DefaultPlanStrategiesModule.install(DefaultPlanStrategiesModule.java:69), scope=Scopes.NO_SCOPE, provider=Key[type=org.matsim.core.replanning.modules.ChangeTripModeStrategyFactory, annotation=[none]]]
2015-04-12 22:38:32,509 DEBUG Injector:70 Key[type=java.util.Map$Entry<java.lang.String, com.google.inject.Provider<org.matsim.core.replanning.PlanStrategy>>, annotation=@com.google.inject.multibindings.Element(setName=,uniqueId=292)] -> InstanceBinding[key=Key[type=java.util.Map$Entry<java.lang.String, com.google.inject.Provider<org.matsim.core.replanning.PlanStrategy>>, annotation=@com.google.inject.multibindings.Element(setName=,uniqueId=292)], source=org.matsim.core.replanning.DefaultPlanStrategiesModule.install(DefaultPlanStrategiesModule.java:70), instance=MapEntry(TripSubtourModeChoice, Provider<org.matsim.core.replanning.PlanStrategy>)]
2015-04-12 22:38:32,509 DEBUG Injector:70 Key[type=org.matsim.core.replanning.PlanStrategy, annotation=@com.google.inject.multibindings.Element(setName=,uniqueId=291)] -> ProviderKeyBinding[key=Key[type=org.matsim.core.replanning.PlanStrategy, annotation=@com.google.inject.multibindings.Element(setName=,uniqueId=291)], source=org.matsim.core.replanning.DefaultPlanStrategiesModule.install(DefaultPlanStrategiesModule.java:70), scope=Scopes.NO_SCOPE, provider=Key[type=org.matsim.core.replanning.modules.TripSubtourModeChoiceStrategyFactory, annotation=[none]]]
2015-04-12 22:38:32,509 DEBUG Injector:70 Key[type=org.matsim.core.replanning.StrategyManager, annotation=[none]] -> ProviderKeyBinding[key=Key[type=org.matsim.core.replanning.StrategyManager, annotation=[none]], source=org.matsim.core.replanning.StrategyManagerModule.install(StrategyManagerModule.java:39), scope=Scopes.SINGLETON, provider=Key[type=org.matsim.core.replanning.StrategyManagerModule$StrategyManagerProvider, annotation=[none]]]
2015-04-12 22:38:32,510 DEBUG Injector:70 Key[type=org.matsim.core.replanning.ReplanningContext, annotation=[none]] -> LinkedKeyBinding[key=Key[type=org.matsim.core.replanning.ReplanningContext, annotation=[none]], source=org.matsim.core.replanning.StrategyManagerModule.install(StrategyManagerModule.java:40), scope=Scopes.NO_SCOPE, target=Key[type=org.matsim.core.replanning.ReplanningContextImpl, annotation=[none]]]
2015-04-12 22:38:32,510 DEBUG Injector:70 Key[type=org.matsim.analysis.CalcLinkStats, annotation=[none]] -> ProviderKeyBinding[key=Key[type=org.matsim.analysis.CalcLinkStats, annotation=[none]], source=org.matsim.core.controler.corelisteners.LinkStatsModule.install(LinkStatsModule.java:43), scope=Scopes.SINGLETON, provider=Key[type=org.matsim.core.controler.corelisteners.LinkStatsModule$CalcLinkStatsProvider, annotation=[none]]]
2015-04-12 22:38:32,510 DEBUG Injector:70 Key[type=org.matsim.core.controler.listener.ControlerListener, annotation=@com.google.inject.multibindings.Element(setName=,uniqueId=293)] -> LinkedKeyBinding[key=Key[type=org.matsim.core.controler.listener.ControlerListener, annotation=@com.google.inject.multibindings.Element(setName=,uniqueId=293)], source=org.matsim.core.controler.corelisteners.LinkStatsModule.install(LinkStatsModule.java:44), scope=Scopes.NO_SCOPE, target=Key[type=org.matsim.core.controler.corelisteners.LinkStatsControlerListener, annotation=[none]]]
2015-04-12 22:38:32,510 DEBUG Injector:70 Key[type=org.matsim.analysis.VolumesAnalyzer, annotation=[none]] -> ProviderKeyBinding[key=Key[type=org.matsim.analysis.VolumesAnalyzer, annotation=[none]], source=org.matsim.analysis.VolumesAnalyzerModule.install(VolumesAnalyzerModule.java:34), scope=Scopes.SINGLETON, provider=Key[type=org.matsim.analysis.VolumesAnalyzerModule$VolumesAnalyzerProvider, annotation=[none]]]
2015-04-12 22:38:32,510 DEBUG Injector:70 Key[type=org.matsim.core.events.handler.EventHandler, annotation=@com.google.inject.multibindings.Element(setName=,uniqueId=294)] -> LinkedKeyBinding[key=Key[type=org.matsim.core.events.handler.EventHandler, annotation=@com.google.inject.multibindings.Element(setName=,uniqueId=294)], source=org.matsim.analysis.VolumesAnalyzerModule.install(VolumesAnalyzerModule.java:35), scope=Scopes.NO_SCOPE, target=Key[type=org.matsim.analysis.VolumesAnalyzer, annotation=[none]]]
2015-04-12 22:38:32,511 DEBUG Injector:70 Key[type=org.matsim.core.events.handler.EventHandler, annotation=@com.google.inject.multibindings.Element(setName=,uniqueId=295)] -> InstanceBinding[key=Key[type=org.matsim.core.events.handler.EventHandler, annotation=@com.google.inject.multibindings.Element(setName=,uniqueId=295)], source=org.matsim.core.controler.corelisteners.LegHistogramModule.install(LegHistogramModule.java:32), instance=org.matsim.analysis.LegHistogram@1ef3215]
2015-04-12 22:38:32,511 DEBUG Injector:70 Key[type=org.matsim.analysis.LegHistogram, annotation=[none]] -> InstanceBinding[key=Key[type=org.matsim.analysis.LegHistogram, annotation=[none]], source=org.matsim.core.controler.corelisteners.LegHistogramModule.install(LegHistogramModule.java:33), instance=org.matsim.analysis.LegHistogram@1ef3215]
2015-04-12 22:38:32,511 DEBUG Injector:70 Key[type=org.matsim.core.controler.listener.ControlerListener, annotation=@com.google.inject.multibindings.Element(setName=,uniqueId=296)] -> LinkedKeyBinding[key=Key[type=org.matsim.core.controler.listener.ControlerListener, annotation=@com.google.inject.multibindings.Element(setName=,uniqueId=296)], source=org.matsim.core.controler.corelisteners.LegHistogramModule.install(LegHistogramModule.java:34), scope=Scopes.NO_SCOPE, target=Key[type=org.matsim.core.controler.corelisteners.LegHistogramListener, annotation=[none]]]
2015-04-12 22:38:32,511 DEBUG Injector:70 Key[type=org.matsim.core.events.handler.EventHandler, annotation=@com.google.inject.multibindings.Element(setName=,uniqueId=297)] -> LinkedKeyBinding[key=Key[type=org.matsim.core.events.handler.EventHandler, annotation=@com.google.inject.multibindings.Element(setName=,uniqueId=297)], source=org.matsim.analysis.LegTimesModule.install(LegTimesModule.java:31), scope=Scopes.NO_SCOPE, target=Key[type=org.matsim.analysis.CalcLegTimes, annotation=[none]]]
2015-04-12 22:38:32,511 DEBUG Injector:70 Key[type=org.matsim.core.controler.listener.ControlerListener, annotation=@com.google.inject.multibindings.Element(setName=,uniqueId=298)] -> LinkedKeyBinding[key=Key[type=org.matsim.core.controler.listener.ControlerListener, annotation=@com.google.inject.multibindings.Element(setName=,uniqueId=298)], source=org.matsim.analysis.LegTimesModule.install(LegTimesModule.java:32), scope=Scopes.NO_SCOPE, target=Key[type=org.matsim.analysis.LegTimesControlerListener, annotation=[none]]]
2015-04-12 22:38:32,511 DEBUG Injector:70 Key[type=org.matsim.core.controler.listener.ControlerListener, annotation=@com.google.inject.multibindings.Element(setName=,uniqueId=299)] -> LinkedKeyBinding[key=Key[type=org.matsim.core.controler.listener.ControlerListener, annotation=@com.google.inject.multibindings.Element(setName=,uniqueId=299)], source=org.matsim.analysis.ScoreStatsModule.install(ScoreStatsModule.java:31), scope=Scopes.NO_SCOPE, target=Key[type=org.matsim.analysis.ScoreStatsControlerListener, annotation=[none]]]
2015-04-12 22:38:32,511 DEBUG Injector:70 Key[type=org.matsim.analysis.ScoreStats, annotation=[none]] -> LinkedKeyBinding[key=Key[type=org.matsim.analysis.ScoreStats, annotation=[none]], source=org.matsim.analysis.ScoreStatsModule.install(ScoreStatsModule.java:32), scope=Scopes.NO_SCOPE, target=Key[type=org.matsim.analysis.ScoreStatsControlerListener, annotation=[none]]]
2015-04-12 22:38:32,511 DEBUG Injector:70 Key[type=org.matsim.core.controler.listener.ControlerListener, annotation=@com.google.inject.multibindings.Element(setName=,uniqueId=300)] -> LinkedKeyBinding[key=Key[type=org.matsim.core.controler.listener.ControlerListener, annotation=@com.google.inject.multibindings.Element(setName=,uniqueId=300)], source=org.matsim.counts.CountsModule.install(CountsModule.java:30), scope=Scopes.NO_SCOPE, target=Key[type=org.matsim.counts.CountsControlerListener, annotation=[none]]]
2015-04-12 22:38:32,512 DEBUG Injector:70 Key[type=org.matsim.core.controler.listener.ControlerListener, annotation=@com.google.inject.multibindings.Element(setName=,uniqueId=301)] -> LinkedKeyBinding[key=Key[type=org.matsim.core.controler.listener.ControlerListener, annotation=@com.google.inject.multibindings.Element(setName=,uniqueId=301)], source=org.matsim.population.VspPlansCleanerModule.install(VspPlansCleanerModule.java:34), scope=Scopes.NO_SCOPE, target=Key[type=org.matsim.population.VspPlansCleaner, annotation=[none]]]
2015-04-12 22:38:32,512 DEBUG Injector:70 Key[type=org.matsim.core.controler.OutputDirectoryHierarchy, annotation=[none]] -> InstanceBinding[key=Key[type=org.matsim.core.controler.OutputDirectoryHierarchy, annotation=[none]], source=org.matsim.core.controler.Controler$2.install(Controler.java:310), instance=org.matsim.core.controler.OutputDirectoryHierarchy@2bfd3f69]
2015-04-12 22:38:32,512 DEBUG Injector:70 Key[type=org.matsim.analysis.IterationStopWatch, annotation=[none]] -> InstanceBinding[key=Key[type=org.matsim.analysis.IterationStopWatch, annotation=[none]], source=org.matsim.core.controler.Controler$2.install(Controler.java:311), instance=org.matsim.analysis.IterationStopWatch@6155c36d]
2015-04-12 22:38:32,512 DEBUG Injector:70 Key[type=org.matsim.api.core.v01.Scenario, annotation=[none]] -> InstanceBinding[key=Key[type=org.matsim.api.core.v01.Scenario, annotation=[none]], source=org.matsim.core.controler.Controler$2.install(Controler.java:312), instance=org.matsim.core.scenario.ScenarioImpl@49ef4c3f]
2015-04-12 22:38:32,512 DEBUG Injector:70 Key[type=org.matsim.core.api.experimental.events.EventsManager, annotation=[none]] -> InstanceBinding[key=Key[type=org.matsim.core.api.experimental.events.EventsManager, annotation=[none]], source=org.matsim.core.controler.Controler$2.install(Controler.java:313), instance=org.matsim.core.events.SimStepParallelEventsManagerImpl@7f0b4f6]
2015-04-12 22:38:32,512 DEBUG Injector:70 Key[type=java.lang.Integer, annotation=@com.google.inject.name.Named(value=iteration)] -> ProviderInstanceBinding[key=Key[type=java.lang.Integer, annotation=@com.google.inject.name.Named(value=iteration)], source=org.matsim.core.controler.Controler$2.install(Controler.java:314), scope=Scopes.NO_SCOPE, provider=org.matsim.core.controler.Controler$2$1@2949784b]
2015-04-12 22:38:32,512 DEBUG Injector:70 Key[type=org.matsim.analysis.CalcLegTimes, annotation=[none]] -> ConstructorBinding[key=Key[type=org.matsim.analysis.CalcLegTimes, annotation=[none]], source=org.matsim.analysis.LegTimesModule.install(LegTimesModule.java:30), scope=Scopes.SINGLETON]
2015-04-12 22:38:32,512 DEBUG Injector:70 Key[type=org.matsim.analysis.ScoreStatsControlerListener, annotation=[none]] -> ConstructorBinding[key=Key[type=org.matsim.analysis.ScoreStatsControlerListener, annotation=[none]], source=org.matsim.analysis.ScoreStatsModule.install(ScoreStatsModule.java:30), scope=Scopes.SINGLETON]
2015-04-12 22:38:32,512  INFO ScenarioImpl:272 no transit schedule, and transit not activated from config. You must first call the create method of ScenarioImpl.
2015-04-12 22:38:32,513  INFO StrategyManagerConfigLoader:61 global innovation switch off after iteration: 0
2015-04-12 22:38:32,513  INFO GenericStrategyManager:330 setting PlanSelectorForRemoval to class org.matsim.core.replanning.selectors.WorstPlanForRemovalSelector
2015-04-12 22:38:32,513  INFO EventsManagerImpl:144 adding Event-Handler: org.matsim.core.trafficmonitoring.TravelTimeCalculator
2015-04-12 22:38:32,514  INFO EventsManagerImpl:148   org.matsim.api.core.v01.events.handler.LinkEnterEventHandler
2015-04-12 22:38:32,514  INFO EventsManagerImpl:207     > org.matsim.api.core.v01.events.LinkEnterEvent
2015-04-12 22:38:32,514  INFO EventsManagerImpl:148   org.matsim.api.core.v01.events.handler.LinkLeaveEventHandler
2015-04-12 22:38:32,514  INFO EventsManagerImpl:207     > org.matsim.api.core.v01.events.LinkLeaveEvent
2015-04-12 22:38:32,514  INFO EventsManagerImpl:148   org.matsim.api.core.v01.events.handler.PersonDepartureEventHandler
2015-04-12 22:38:32,514  INFO EventsManagerImpl:207     > org.matsim.api.core.v01.events.PersonDepartureEvent
2015-04-12 22:38:32,514  INFO EventsManagerImpl:148   org.matsim.api.core.v01.events.handler.PersonArrivalEventHandler
2015-04-12 22:38:32,514  INFO EventsManagerImpl:207     > org.matsim.api.core.v01.events.PersonArrivalEvent
2015-04-12 22:38:32,514  INFO EventsManagerImpl:148   org.matsim.core.api.experimental.events.handler.VehicleArrivesAtFacilityEventHandler
2015-04-12 22:38:32,514  INFO EventsManagerImpl:207     > org.matsim.core.api.experimental.events.VehicleArrivesAtFacilityEvent
2015-04-12 22:38:32,514  INFO EventsManagerImpl:148   org.matsim.api.core.v01.events.handler.TransitDriverStartsEventHandler
2015-04-12 22:38:32,514  INFO EventsManagerImpl:207     > org.matsim.api.core.v01.events.TransitDriverStartsEvent
2015-04-12 22:38:32,514  INFO EventsManagerImpl:148   org.matsim.api.core.v01.events.handler.PersonStuckEventHandler
2015-04-12 22:38:32,515  INFO EventsManagerImpl:207     > org.matsim.api.core.v01.events.PersonStuckEvent
2015-04-12 22:38:32,515  INFO EventsManagerImpl:156 
2015-04-12 22:38:32,515  INFO EventsManagerImpl:144 adding Event-Handler: org.matsim.core.trafficmonitoring.TravelTimeCalculator
2015-04-12 22:38:32,515  INFO EventsManagerImpl:148   org.matsim.api.core.v01.events.handler.LinkEnterEventHandler
2015-04-12 22:38:32,515  INFO EventsManagerImpl:207     > org.matsim.api.core.v01.events.LinkEnterEvent
2015-04-12 22:38:32,515  INFO EventsManagerImpl:148   org.matsim.api.core.v01.events.handler.LinkLeaveEventHandler
2015-04-12 22:38:32,515  INFO EventsManagerImpl:207     > org.matsim.api.core.v01.events.LinkLeaveEvent
2015-04-12 22:38:32,515  INFO EventsManagerImpl:148   org.matsim.api.core.v01.events.handler.PersonDepartureEventHandler
2015-04-12 22:38:32,515  INFO EventsManagerImpl:207     > org.matsim.api.core.v01.events.PersonDepartureEvent
2015-04-12 22:38:32,515  INFO EventsManagerImpl:148   org.matsim.api.core.v01.events.handler.PersonArrivalEventHandler
2015-04-12 22:38:32,515  INFO EventsManagerImpl:207     > org.matsim.api.core.v01.events.PersonArrivalEvent
2015-04-12 22:38:32,515  INFO EventsManagerImpl:148   org.matsim.core.api.experimental.events.handler.VehicleArrivesAtFacilityEventHandler
2015-04-12 22:38:32,515  INFO EventsManagerImpl:207     > org.matsim.core.api.experimental.events.VehicleArrivesAtFacilityEvent
2015-04-12 22:38:32,515  INFO EventsManagerImpl:148   org.matsim.api.core.v01.events.handler.TransitDriverStartsEventHandler
2015-04-12 22:38:32,516  INFO EventsManagerImpl:207     > org.matsim.api.core.v01.events.TransitDriverStartsEvent
2015-04-12 22:38:32,516  INFO EventsManagerImpl:148   org.matsim.api.core.v01.events.handler.PersonStuckEventHandler
2015-04-12 22:38:32,516  INFO EventsManagerImpl:207     > org.matsim.api.core.v01.events.PersonStuckEvent
2015-04-12 22:38:32,516  INFO EventsManagerImpl:156 
2015-04-12 22:38:32,516  INFO EventsManagerImpl:144 adding Event-Handler: org.matsim.analysis.VolumesAnalyzer
2015-04-12 22:38:32,516  INFO EventsManagerImpl:148   org.matsim.api.core.v01.events.handler.LinkLeaveEventHandler
2015-04-12 22:38:32,516  INFO EventsManagerImpl:207     > org.matsim.api.core.v01.events.LinkLeaveEvent
2015-04-12 22:38:32,516  INFO EventsManagerImpl:148   org.matsim.api.core.v01.events.handler.PersonDepartureEventHandler
2015-04-12 22:38:32,516  INFO EventsManagerImpl:207     > org.matsim.api.core.v01.events.PersonDepartureEvent
2015-04-12 22:38:32,516  INFO EventsManagerImpl:156 
2015-04-12 22:38:32,516  INFO EventsManagerImpl:144 adding Event-Handler: org.matsim.analysis.VolumesAnalyzer
2015-04-12 22:38:32,516  INFO EventsManagerImpl:148   org.matsim.api.core.v01.events.handler.LinkLeaveEventHandler
2015-04-12 22:38:32,516  INFO EventsManagerImpl:207     > org.matsim.api.core.v01.events.LinkLeaveEvent
2015-04-12 22:38:32,516  INFO EventsManagerImpl:148   org.matsim.api.core.v01.events.handler.PersonDepartureEventHandler
2015-04-12 22:38:32,516  INFO EventsManagerImpl:207     > org.matsim.api.core.v01.events.PersonDepartureEvent
2015-04-12 22:38:32,516  INFO EventsManagerImpl:156 
2015-04-12 22:38:32,517  INFO EventsManagerImpl:144 adding Event-Handler: org.matsim.analysis.LegHistogram
2015-04-12 22:38:32,517  INFO EventsManagerImpl:148   org.matsim.api.core.v01.events.handler.PersonDepartureEventHandler
2015-04-12 22:38:32,517  INFO EventsManagerImpl:207     > org.matsim.api.core.v01.events.PersonDepartureEvent
2015-04-12 22:38:32,517  INFO EventsManagerImpl:148   org.matsim.api.core.v01.events.handler.PersonArrivalEventHandler
2015-04-12 22:38:32,517  INFO EventsManagerImpl:207     > org.matsim.api.core.v01.events.PersonArrivalEvent
2015-04-12 22:38:32,517  INFO EventsManagerImpl:148   org.matsim.api.core.v01.events.handler.PersonStuckEventHandler
2015-04-12 22:38:32,517  INFO EventsManagerImpl:207     > org.matsim.api.core.v01.events.PersonStuckEvent
2015-04-12 22:38:32,517  INFO EventsManagerImpl:156 
2015-04-12 22:38:32,517  INFO EventsManagerImpl:144 adding Event-Handler: org.matsim.analysis.LegHistogram
2015-04-12 22:38:32,517  INFO EventsManagerImpl:148   org.matsim.api.core.v01.events.handler.PersonDepartureEventHandler
2015-04-12 22:38:32,517  INFO EventsManagerImpl:207     > org.matsim.api.core.v01.events.PersonDepartureEvent
2015-04-12 22:38:32,517  INFO EventsManagerImpl:148   org.matsim.api.core.v01.events.handler.PersonArrivalEventHandler
2015-04-12 22:38:32,517  INFO EventsManagerImpl:207     > org.matsim.api.core.v01.events.PersonArrivalEvent
2015-04-12 22:38:32,517  INFO EventsManagerImpl:148   org.matsim.api.core.v01.events.handler.PersonStuckEventHandler
2015-04-12 22:38:32,517  INFO EventsManagerImpl:207     > org.matsim.api.core.v01.events.PersonStuckEvent
2015-04-12 22:38:32,518  INFO EventsManagerImpl:156 
2015-04-12 22:38:32,518  INFO EventsManagerImpl:144 adding Event-Handler: org.matsim.analysis.CalcLegTimes
2015-04-12 22:38:32,518  INFO EventsManagerImpl:148   org.matsim.api.core.v01.events.handler.PersonDepartureEventHandler
2015-04-12 22:38:32,518  INFO EventsManagerImpl:207     > org.matsim.api.core.v01.events.PersonDepartureEvent
2015-04-12 22:38:32,518  INFO EventsManagerImpl:148   org.matsim.api.core.v01.events.handler.PersonArrivalEventHandler
2015-04-12 22:38:32,518  INFO EventsManagerImpl:207     > org.matsim.api.core.v01.events.PersonArrivalEvent
2015-04-12 22:38:32,518  INFO EventsManagerImpl:148   org.matsim.api.core.v01.events.handler.ActivityEndEventHandler
2015-04-12 22:38:32,518  INFO EventsManagerImpl:207     > org.matsim.api.core.v01.events.ActivityEndEvent
2015-04-12 22:38:32,518  INFO EventsManagerImpl:148   org.matsim.api.core.v01.events.handler.ActivityStartEventHandler
2015-04-12 22:38:32,518  INFO EventsManagerImpl:207     > org.matsim.api.core.v01.events.ActivityStartEvent
2015-04-12 22:38:32,518  INFO EventsManagerImpl:156 
2015-04-12 22:38:32,518  INFO EventsManagerImpl:144 adding Event-Handler: org.matsim.analysis.CalcLegTimes
2015-04-12 22:38:32,518  INFO EventsManagerImpl:148   org.matsim.api.core.v01.events.handler.PersonDepartureEventHandler
2015-04-12 22:38:32,518  INFO EventsManagerImpl:207     > org.matsim.api.core.v01.events.PersonDepartureEvent
2015-04-12 22:38:32,518  INFO EventsManagerImpl:148   org.matsim.api.core.v01.events.handler.PersonArrivalEventHandler
2015-04-12 22:38:32,518  INFO EventsManagerImpl:207     > org.matsim.api.core.v01.events.PersonArrivalEvent
2015-04-12 22:38:32,519  INFO EventsManagerImpl:148   org.matsim.api.core.v01.events.handler.ActivityEndEventHandler
2015-04-12 22:38:32,519  INFO EventsManagerImpl:207     > org.matsim.api.core.v01.events.ActivityEndEvent
2015-04-12 22:38:32,519  INFO EventsManagerImpl:148   org.matsim.api.core.v01.events.handler.ActivityStartEventHandler
2015-04-12 22:38:32,519  INFO EventsManagerImpl:207     > org.matsim.api.core.v01.events.ActivityStartEvent
2015-04-12 22:38:32,519  INFO EventsManagerImpl:156 
2015-04-12 22:38:32,519  INFO CalcLinkStats:148  resetting `count' to zero.  This info is here since we want to check when this is happening during normal simulation runs.  kai, jan'11
2015-04-12 22:38:32,519  INFO ControlerListenerManager:108 calling notifyStartup on org.matsim.counts.CountsControlerListener
2015-04-12 22:38:32,519  INFO ControlerListenerManager:108 calling notifyStartup on org.matsim.analysis.ScoreStatsControlerListener
2015-04-12 22:38:32,520  INFO ControlerListenerManager:108 calling notifyStartup on org.matsim.contrib.signals.DefaultPlanbasedSignalControlTest.PlanSwitchingTestListener
2015-04-12 22:38:32,520  INFO EventsManagerImpl:144 adding Event-Handler: org.matsim.contrib.signals.DefaultPlanbasedSignalControlTest$PlanSwitchingTestListener
2015-04-12 22:38:32,520  INFO EventsManagerImpl:148   org.matsim.core.controler.listener.StartupListener
2015-04-12 22:38:32,520  INFO EventsManagerImpl:148   org.matsim.core.api.experimental.events.handler.SignalGroupStateChangedEventHandler
2015-04-12 22:38:32,520  INFO EventsManagerImpl:207     > org.matsim.core.api.experimental.events.SignalGroupStateChangedEvent
2015-04-12 22:38:32,520  INFO EventsManagerImpl:156 
2015-04-12 22:38:32,520  INFO EventsManagerImpl:144 adding Event-Handler: org.matsim.contrib.signals.DefaultPlanbasedSignalControlTest$PlanSwitchingTestListener
2015-04-12 22:38:32,520  INFO EventsManagerImpl:148   org.matsim.core.controler.listener.StartupListener
2015-04-12 22:38:32,520  INFO EventsManagerImpl:148   org.matsim.core.api.experimental.events.handler.SignalGroupStateChangedEventHandler
2015-04-12 22:38:32,520  INFO EventsManagerImpl:207     > org.matsim.core.api.experimental.events.SignalGroupStateChangedEvent
2015-04-12 22:38:32,520  INFO EventsManagerImpl:156 
2015-04-12 22:38:32,520  INFO ControlerListenerManager:111 all ControlerStartupListeners called.
2015-04-12 22:38:32,520  INFO ControlerUtils:57 config dump before iterations start
2015-04-12 22:38:32,522  INFO ControlerUtils:61 

<?xml version="1.0" encoding="UTF-8"?>
<!DOCTYPE config SYSTEM "http://www.matsim.org/files/dtd/config_v2.dtd">
<config>

<!-- ====================================================================== -->

	<module name="TimeAllocationMutator" >
		<param name="mutationAffectsDuration" value="true" />

		<!-- Default:1800.0; Defines how many seconds a time mutation can maximally shift a time. -->
		<param name="mutationRange" value="1800.0" />
	</module>

<!-- ====================================================================== -->

	<module name="controler" >

		<!-- Default=false;  -->
		<param name="enableLinkToLinkRouting" value="false" />

		<!-- Default=xml; Specifies the file format for writing events. Currently supported: txt, xml.
		Multiple values can be specified separated by commas (','). -->
		<param name="eventsFileFormat" value="xml" />

		<!-- Default=0;  -->
		<param name="firstIteration" value="0" />

		<!-- Default=1000;  -->
		<param name="lastIteration" value="0" />

		<!-- Defines which mobility simulation will be used. Currently supported: qsim JDEQSim 
		Depending on the chosen mobsim, you'll have to add additional config modules to configure the corresponding mobsim.
		For 'qsim', add a module 'qsim' to the config. -->
		<param name="mobsim" value="qsim" />

		<param name="outputDirectory" value="test/output/org/matsim/contrib/signals/DefaultPlanbasedSignalControlTest/planSwitchingTest/" />

		<!-- The type of routing (least cost path) algorithm used, may have the values: Dijkstra, FastDijkstra, AStarLandmarks or FastAStarLandmarks -->
		<param name="routingAlgorithmType" value="Dijkstra" />

		<!-- An identifier for the current run which is used as prefix for output files and mentioned in output xml files etc. -->
		<param name="runId" value="null" />

		<!-- Comma-separated list of visualizer output file formats. `transims', `googleearth', and `otfvis'. -->
		<param name="snapshotFormat" value="" />

		<!-- iterationNumber % writeEventsInterval == 0 defines in which iterations events are written to a file. `0' disables events writing completely. -->
		<param name="writeEventsInterval" value="10" />

		<!-- iterationNumber % writePlansInterval == 0 defines (hopefully) in which iterations plans are written to a file. `0' disables plans writing completely.  Some plans in early iterations are always written -->
		<param name="writePlansInterval" value="10" />

		<!-- iterationNumber % writeSnapshotsInterval == 0 defines in which iterations snapshots are written to a file. `0' disables snapshots writing completely -->
		<param name="writeSnapshotsInterval" value="1" />
	</module>

<!-- ====================================================================== -->

	<module name="counts" >

		<!-- Transport modes that will be respected for the counts comparison. 'car' is default, which includes also bussed from the pt simulation module. Use this parameter in combination with 'filterModes' = true! -->
		<param name="analyzedModes" value="car" />

		<!-- Specifies over how many iterations the link volumes should be averaged that are used for the counts comparison. Use 1 or 0 to only use the link volumes of a single iteration. This values cannot be larger than the value specified for writeCountsInterval -->
		<param name="averageCountsOverIterations" value="5" />

		<!-- factor by which to re-scale the simulated values.  necessary when simulation runs with something different from 100%.  needs to be adapted manually -->
		<param name="countsScaleFactor" value="1.0" />

		<!-- distance to distanceFilterCenterNode to include counting stations. The unit of distance is the Euclidean distance implied by the coordinate system -->
		<param name="distanceFilter" value="null" />

		<!-- node id for center node of distance filter -->
		<param name="distanceFilterCenterNode" value="null" />

		<!-- If true, link counts from legs performed on modes not included in the 'analyzedModes' parameter are ignored. -->
		<param name="filterModes" value="false" />

		<!-- input file name to counts package -->
		<param name="inputCountsFile" value="null" />

		<!-- possible values: `html', `kml', `txt', `all' -->
		<param name="outputformat" value="txt" />

		<!-- Specifies how often the counts comparison should be calculated and written. -->
		<param name="writeCountsInterval" value="10" />
	</module>

<!-- ====================================================================== -->

	<module name="facilities" >
		<param name="inputFacilitiesFile" value="null" />
		<param name="inputFacilityAttributesFile" value="null" />
	</module>

<!-- ====================================================================== -->

	<module name="global" >
		<param name="coordinateSystem" value="Atlantis" />

		<!-- "global" number of threads.  This number is used, e.g., for replanning, but NOT in the mobsim.  This can typically be set to as many cores as you have available, or possibly even slightly more. -->
		<param name="numberOfThreads" value="2" />

		<param name="randomSeed" value="4711" />
	</module>

<!-- ====================================================================== -->

	<module name="households" >
		<param name="inputFile" value="null" />
		<param name="inputHouseholdAttributesFile" value="null" />
	</module>

<!-- ====================================================================== -->

	<module name="linkStats" >

		<!-- Specifies over how many iterations the link volumes should be averaged that are used for the link statistics. Use 1 or 0 to only use the link volumes of a single iteration. This values cannot be larger than the value specified for writeLinkStatsInterval -->
		<param name="averageLinkStatsOverIterations" value="5" />

		<!-- Specifies how often the link stats should be calculated and written. Use 0 to disable the generation of link stats. -->
		<param name="writeLinkStatsInterval" value="10" />
	</module>

<!-- ====================================================================== -->

	<module name="network" >
		<param name="inputChangeEventsFile" value="null" />
		<param name="inputNetworkFile" value="test/input/org/matsim/contrib/signals/DefaultPlanbasedSignalControlTest/network.xml" />
		<param name="laneDefinitionsFile" value="null" />
		<param name="timeVariantNetwork" value="false" />
	</module>

<!-- ====================================================================== -->

	<module name="parallelEventHandling" >

		<!-- Estimated number of events during mobsim run. An optional optimization hint for the framework. -->
		<param name="estimatedNumberOfEvents" value="null" />

		<!-- Number of threads for parallel events handler. 0 or null means the framework decides by itself. -->
		<param name="numberOfThreads" value="null" />
	</module>

<!-- ====================================================================== -->

	<module name="planCalcScore" >

		<!-- logit model scale parameter. default: 1.  Has name and default value for historical reasons (see Bryan Raney's phd thesis). -->
		<param name="BrainExpBeta" value="1.0" />

		<param name="PathSizeLogitBeta" value="1.0" />

		<!-- [utils/hr] utility for departing early (i.e. before the earliest end time).  Normally negative.  Probably implemented correctly, but not tested. -->
		<param name="earlyDeparture" value="-0.0" />

		<!-- [utils/hr] utility for arriving late (i.e. after the latest start time).  normally negative -->
		<param name="lateArrival" value="-18.0" />

		<!-- new_score = (1-learningRate)*old_score + learningRate * score_from_mobsim.  learning rates close to zero emulate score averaging, but slow down initial convergence -->
		<param name="learningRate" value="1.0" />

		<!-- [utils/unit_of_money] conversion of money (e.g. toll, distance cost) into utils. Normall positive (i.e. toll/cost/fare are processed as negative amounts of money). -->
		<param name="marginalUtilityOfMoney" value="1.0" />

		<!-- [utils/hr] marginal utility of doing an activity.  normally positive.  also the opportunity cost of time if agent is doing nothing.  MATSim separates the resource value of time from the direct (dis)utility of travel time, see, e.g., Boerjesson and Eliasson, TR-A 59 (2014) 144-158. -->
		<param name="performing" value="6.0" />

		<!-- There used to be a plateau between duration=0 and duration=zeroUtilityDuration. This caused durations to evolve to zero once they were below zeroUtilityDuration, causing problems.  Only use this switch if you need to be backwards compatible with some old results.  (changed nov'13) -->
		<param name="usingOldScoringBelowZeroUtilityDuration" value="false" />

		<!-- [utils] utility of switching a line (= transfer penalty).  Normally negative -->
		<param name="utilityOfLineSwitch" value="-1.0" />

		<!-- [utils/hr] additional marginal utility for waiting. normally negative. this comes on top of the opportunity cost of time.  Probably implemented correctly, but not tested. -->
		<param name="waiting" value="-0.0" />

		<!-- write a plans file in each iteration directory which contains what each agent actually did, and the score it received. -->
		<param name="writeExperiencedPlans" value="false" />

		<parameterset type="modeParams" >

			<!-- [utils] alternative-specific constant.  no guarantee that this is used anywhere. default=0 to be backwards compatible for the time being -->
			<param name="constant" value="0.0" />

			<!-- [utils/m] utility of walking per m, normally negative.  this is on top of the time (dis)utility. -->
			<param name="marginalUtilityOfDistance_util_m" value="0.0" />

			<!-- [utils/hr] additional marginal utility of traveling.  normally negative.  this comes on top of the opportunity cost of time -->
			<param name="marginalUtilityOfTraveling_util_hr" value="-6.0" />

			<param name="mode" value="car" />

			<!-- [unit_of_money/m] conversion of distance into money. Probably needs to be negative to work. -->
			<param name="monetaryDistanceCostRate" value="0.0" />
		</parameterset>

		<parameterset type="modeParams" >

			<!-- [utils] alternative-specific constant.  no guarantee that this is used anywhere. default=0 to be backwards compatible for the time being -->
			<param name="constant" value="0.0" />

			<!-- [utils/m] utility of walking per m, normally negative.  this is on top of the time (dis)utility. -->
			<param name="marginalUtilityOfDistance_util_m" value="0.0" />

			<!-- [utils/hr] additional marginal utility of traveling.  normally negative.  this comes on top of the opportunity cost of time -->
			<param name="marginalUtilityOfTraveling_util_hr" value="-6.0" />

			<param name="mode" value="pt" />

			<!-- [unit_of_money/m] conversion of distance into money. Probably needs to be negative to work. -->
			<param name="monetaryDistanceCostRate" value="0.0" />
		</parameterset>

		<parameterset type="modeParams" >

			<!-- [utils] alternative-specific constant.  no guarantee that this is used anywhere. default=0 to be backwards compatible for the time being -->
			<param name="constant" value="0.0" />

			<!-- [utils/m] utility of walking per m, normally negative.  this is on top of the time (dis)utility. -->
			<param name="marginalUtilityOfDistance_util_m" value="0.0" />

			<!-- [utils/hr] additional marginal utility of traveling.  normally negative.  this comes on top of the opportunity cost of time -->
			<param name="marginalUtilityOfTraveling_util_hr" value="-6.0" />

			<param name="mode" value="walk" />

			<!-- [unit_of_money/m] conversion of distance into money. Probably needs to be negative to work. -->
			<param name="monetaryDistanceCostRate" value="0.0" />
		</parameterset>

		<parameterset type="modeParams" >

			<!-- [utils] alternative-specific constant.  no guarantee that this is used anywhere. default=0 to be backwards compatible for the time being -->
			<param name="constant" value="0.0" />

			<!-- [utils/m] utility of walking per m, normally negative.  this is on top of the time (dis)utility. -->
			<param name="marginalUtilityOfDistance_util_m" value="0.0" />

			<!-- [utils/hr] additional marginal utility of traveling.  normally negative.  this comes on top of the opportunity cost of time -->
			<param name="marginalUtilityOfTraveling_util_hr" value="-6.0" />

			<param name="mode" value="bike" />

			<!-- [unit_of_money/m] conversion of distance into money. Probably needs to be negative to work. -->
			<param name="monetaryDistanceCostRate" value="0.0" />
		</parameterset>

		<parameterset type="modeParams" >

			<!-- [utils] alternative-specific constant.  no guarantee that this is used anywhere. default=0 to be backwards compatible for the time being -->
			<param name="constant" value="0.0" />

			<!-- [utils/m] utility of walking per m, normally negative.  this is on top of the time (dis)utility. -->
			<param name="marginalUtilityOfDistance_util_m" value="0.0" />

			<!-- [utils/hr] additional marginal utility of traveling.  normally negative.  this comes on top of the opportunity cost of time -->
			<param name="marginalUtilityOfTraveling_util_hr" value="-6.0" />

			<param name="mode" value="other" />

			<!-- [unit_of_money/m] conversion of distance into money. Probably needs to be negative to work. -->
			<param name="monetaryDistanceCostRate" value="0.0" />
		</parameterset>
	</module>

<!-- ====================================================================== -->

	<module name="plans" >

		<!-- String: minOfDurationAndEndTime tryEndTimeThenDuration endTimeOnly. Anything besides minOfDurationAndEndTime will internally use a different (simpler) version of the TimeAllocationMutator. -->
		<param name="activityDurationInterpretation" value="tryEndTimeThenDuration" />

		<!-- Path to a file containing person attributes (required file format: ObjectAttributes). -->
		<param name="inputPersonAttributesFile" value="null" />

		<param name="inputPlansFile" value="null" />

		<!-- Defines how routes are stored in memory. Currently supported: LinkNetworkRoute, CompressedNetworkRoute. -->
		<param name="networkRouteType" value="LinkNetworkRoute" />

		<!-- Name of the (Object)Attribute defining the subpopulation to which pertains a Person (as freight, through traffic, etc.). The attribute must be of String type. -->
		<param name="subpopulationAttributeName" value="subpopulation" />
	</module>

<!-- ====================================================================== -->

	<module name="planscalcroute" >

		<!-- All the modes for which the router is supposed to generate network routes (like car) -->
		<param name="networkModes" value="car,ride" />

		<parameterset type="teleportedModeParameters" >
			<param name="beelineDistanceFactor" value="1.3" />
			<param name="mode" value="bike" />

			<!-- Free-speed factor for a teleported mode. Travel time = teleportedModeFreespeedFactor * <freespeed car travel time>. Insert a line like this for every such mode. Please do not set teleportedModeFreespeedFactor as well as teleportedModeSpeed for the same mode, but if you do, +teleportedModeFreespeedFactor wins over teleportedModeSpeed. -->
			<param name="teleportedModeFreespeedFactor" value="null" />

			<!-- Speed for a teleported mode. Travel time = (<beeline distance> * beelineDistanceFactor) / teleportedModeSpeed. Insert a line like this for every such mode. -->
			<param name="teleportedModeSpeed" value="4.166666666666667" />
		</parameterset>

		<parameterset type="teleportedModeParameters" >
			<param name="beelineDistanceFactor" value="1.3" />
			<param name="mode" value="walk" />

			<!-- Free-speed factor for a teleported mode. Travel time = teleportedModeFreespeedFactor * <freespeed car travel time>. Insert a line like this for every such mode. Please do not set teleportedModeFreespeedFactor as well as teleportedModeSpeed for the same mode, but if you do, +teleportedModeFreespeedFactor wins over teleportedModeSpeed. -->
			<param name="teleportedModeFreespeedFactor" value="null" />

			<!-- Speed for a teleported mode. Travel time = (<beeline distance> * beelineDistanceFactor) / teleportedModeSpeed. Insert a line like this for every such mode. -->
			<param name="teleportedModeSpeed" value="0.8333333333333333" />
		</parameterset>

		<parameterset type="teleportedModeParameters" >
			<param name="beelineDistanceFactor" value="1.3" />
			<param name="mode" value="undefined" />

			<!-- Free-speed factor for a teleported mode. Travel time = teleportedModeFreespeedFactor * <freespeed car travel time>. Insert a line like this for every such mode. Please do not set teleportedModeFreespeedFactor as well as teleportedModeSpeed for the same mode, but if you do, +teleportedModeFreespeedFactor wins over teleportedModeSpeed. -->
			<param name="teleportedModeFreespeedFactor" value="null" />

			<!-- Speed for a teleported mode. Travel time = (<beeline distance> * beelineDistanceFactor) / teleportedModeSpeed. Insert a line like this for every such mode. -->
			<param name="teleportedModeSpeed" value="13.88888888888889" />
		</parameterset>

		<parameterset type="teleportedModeParameters" >
			<param name="beelineDistanceFactor" value="1.3" />
			<param name="mode" value="pt" />

			<!-- Free-speed factor for a teleported mode. Travel time = teleportedModeFreespeedFactor * <freespeed car travel time>. Insert a line like this for every such mode. Please do not set teleportedModeFreespeedFactor as well as teleportedModeSpeed for the same mode, but if you do, +teleportedModeFreespeedFactor wins over teleportedModeSpeed. -->
			<param name="teleportedModeFreespeedFactor" value="2.0" />

			<!-- Speed for a teleported mode. Travel time = (<beeline distance> * beelineDistanceFactor) / teleportedModeSpeed. Insert a line like this for every such mode. -->
			<param name="teleportedModeSpeed" value="null" />
		</parameterset>
	</module>

<!-- ====================================================================== -->

	<module name="ptCounts" >

		<!-- factor by which to re-scale the simulated values.  necessary when simulation runs with something different from 100%.  needs to be adapted manually -->
		<param name="countsScaleFactor" value="1.0" />

[...]
		<param name="maxAgentPlanMemorySize" value="5" />

		<!-- name of PlanSelector for plans removal.  Possible defaults: WorstPlanSelector SelectRandom SelectExpBetaForRemoval ChangeExpBetaForRemoval PathSizeLogitSelectorForRemoval . The current default, WorstPlanSelector is not a good choice from a discrete choice theoretical perspective. Alternatives, however, have not been systematically tested. kai, feb'12 -->
		<param name="planSelectorForRemoval" value="WorstPlanSelector" />
	</module>

<!-- ====================================================================== -->

	<module name="subtourModeChoice" >

		<!-- Defines the chain-based modes, seperated by commas -->
		<param name="chainBasedModes" value="car,bike" />

		<!-- Defines whether car availability must be considered or not. A agent has no car only if it has no license, or never access to a car -->
		<param name="considerCarAvailability" value="false" />

		<!-- Defines all the modes available, including chain-based modes, seperated by commas -->
		<param name="modes" value="car,pt,bike,walk" />
	</module>

<!-- ====================================================================== -->

	<module name="transit" >

		<!-- Comma-separated list of transportation modes that are handled as transit. Defaults to 'pt'. -->
		<param name="transitModes" value="pt" />

		<!-- Input file containing the transit schedule to be simulated. -->
		<param name="transitScheduleFile" value="null" />

		<!-- Input file containing the vehicles used by the departures in the transit schedule. -->
		<param name="vehiclesFile" value="null" />
	</module>

<!-- ====================================================================== -->

	<module name="transitRouter" >

		<!-- additional time the router allocates when a line switch happens. Can be interpreted as a 'safety' time that agents need to safely transfer from one line to another -->
		<param name="additionalTransferTime" value="0.0" />

		<!-- step size to increase searchRadius if no stops are found -->
		<param name="extensionRadius" value="200.0" />

		<!-- maximum beeline distance between stops that agents could transfer to by walking -->
		<param name="maxBeelineWalkConnectionDistance" value="100.0" />

		<!-- the radius in which stop locations are searched, given a start or target coordinate -->
		<param name="searchRadius" value="1000.0" />
	</module>

<!-- ====================================================================== -->

	<module name="travelTimeCalculator" >

		<!-- Transport modes that will be respected by the travel time collector. 'car' is default, which includes also bussed from the pt simulation module. Use this parameter in combination with 'filterModes' = true! -->
		<param name="analyzedModes" value="car" />

		<param name="calculateLinkToLinkTravelTimes" value="false" />
		<param name="calculateLinkTravelTimes" value="true" />

		<!-- If true, link travel times from legs performed on modes not included in the 'analyzedModes' parameter are ignored. -->
		<param name="filterModes" value="false" />

		<!-- How to deal with congested time bins that have no link entry events. `optimistic' assumes free speed (too optimistic); 'experimental_LastMile' is experimental and probably too pessimistic. -->
		<param name="travelTimeAggregator" value="optimistic" />

		<!-- The size of the time bin (in sec) into which the link travel times are aggregated for the router -->
		<param name="travelTimeBinSize" value="900" />

		<!-- possible values: nullTravelTimeCalculatorArray TravelTimeCalculatorHashMap  -->
		<param name="travelTimeCalculator" value="TravelTimeCalculatorArray" />

		<!-- How to deal with link entry times at different positions during the time bin. Currently supported: average, linearinterpolation -->
		<param name="travelTimeGetter" value="average" />
	</module>

<!-- ====================================================================== -->

	<module name="vehicles" >
		<param name="vehiclesFile" value="null" />
	</module>

<!-- ====================================================================== -->

	<module name="vspExperimental" >

		<!-- (do not use) set chainBasedModes for subTourModeChoice by Yu. E.g. "car,bike", "car" -->
		<param name="chainBasedModes" value="car" />

		<!-- fraction of iterations at which MSA score averaging is started. The matsim theory department suggests to use this together with switching off choice set innovation (where a similar switch exists), but it has not been tested yet. -->
		<param name="fractionOfIterationsToStartScoreMSA" value="null" />

		<!-- (do not use) Set this filename of MZ05 daily analysis -->
		<param name="inputMZ05File" value="" />

		<!-- (do not use except of you have to) There was a problem with pt interaction scoring.  Some people solved it by overwriting the parameters of the pt interaction activity type.  Doing this now throws an Exception.  If you still insist on doing this, set the following to true. -->
		<param name="isAbleToOverwritePtInteractionParams" value="false" />

		<param name="isGeneratingBoardingDeniedEvent" value="false" />

		<!-- if an approximation of the opportunity cost of time is included into the radius calculation for location choice.`true' will be faster, but it is an approximation.  Default is `true'; `false' is available for backwards compatibility. -->
		<param name="isUsingOpportunityCostOfTimeForLocationChoice" value="true" />

		<param name="logitScaleParamForPlansRemoval" value="1.0" />

		<!-- changes MATSim's global time format used in output files. Can be used to enforce writing fractional seconds e.g. in output_plans.  default is `hh:mm:ss' (because of backwards compatibility). see Time.java for possible formats -->
		<param name="matsimGlobalTimeformat" value="HH:mm:ss" />

		<!-- (do not use) set the traffic mode option for subTourModeChoice by Yu -->
		<param name="modes" value="car, pt" />

		<!-- (not tested) will remove plan attributes that are presumably not used, such as activityStartTime. default=false -->
		<param name="removingUnnecessaryPlanAttributes" value="false" />

		<!-- (deprecated, use fractionOfIterationsToStartScoreMSA) first iteration of MSA score averaging. The matsim theory department suggests to use this together with switching of choice set innovation, but it has not been tested yet. -->
		<param name="scoreMSAStartsAtIteration" value="null" />

		<!-- Options: `ignore', `warn', `abort'.  Default: either `ignore' or `warn'.
		When violating VSP defaults, this results in nothing, warnings, or aborts.  Members of VSP should use `abort' or talk to kai. -->
		<param name="vspDefaultsCheckingLevel" value="warn" />

		<!-- if true then writes output_events in output directory.  default is `false'. Will only work when lastIteration is multiple of events writing interval -->
		<param name="writingOutputEvents" value="false" />
	</module>

<!-- ====================================================================== -->

</config>

2015-04-12 22:38:32,522  INFO ControlerUtils:62 Complete config dump done.
2015-04-12 22:38:32,522  INFO ControlerUtils:63 Checking consistency of config...
2015-04-12 22:38:32,522  INFO PlanCalcScoreConfigGroup:380 NO OPENING OR CLOSING TIMES DEFINED!


There is no activity type that has an opening *and* closing time (or opening time and late penalty) defined.
This usually means that the activity chains can be shifted by an arbitrary
number of hours without having an effect on the score of the plans, and thus
resulting in wrong results / traffic patterns.
If you are using MATSim without time adaptation, you can ignore this warning.



2015-04-12 22:38:32,523  INFO VspConfigConsistencyCheckerImpl:51 running checkConsistency ...
2015-04-12 22:38:32,523  WARN VspConfigConsistencyCheckerImpl:109 You have no strategy configured that uses ChangeExpBeta. vsp default is to use ChangeExpBeta at least in one strategy.
2015-04-12 22:38:32,523  WARN VspConfigConsistencyCheckerImpl:123 timeAllocationMutator mutationRange < 7200; vsp default is 7200.  This means you have to add the following lines to your config file: 
2015-04-12 22:38:32,523  WARN VspConfigConsistencyCheckerImpl:124 <module name="TimeAllocationMutator">
2015-04-12 22:38:32,523  WARN VspConfigConsistencyCheckerImpl:125 	<param name="mutationRange" value="7200.0" />
2015-04-12 22:38:32,523  WARN VspConfigConsistencyCheckerImpl:126 </module>
2015-04-12 22:38:32,523  WARN VspConfigConsistencyCheckerImpl:132 timeAllocationMutator is affecting duration; vsp default is to not do that.  This will be more strictly enforced in the future. This means you have to add the following lines to your config file: 
2015-04-12 22:38:32,524  WARN VspConfigConsistencyCheckerImpl:134 <module name="TimeAllocationMutator">
2015-04-12 22:38:32,524  WARN VspConfigConsistencyCheckerImpl:135 	<param name="affectingDuration" value="false" />
2015-04-12 22:38:32,524  WARN VspConfigConsistencyCheckerImpl:136 </module>
2015-04-12 22:38:32,524  WARN VspConfigConsistencyCheckerImpl:143 You are not removing unnecessary plan attributes; vsp default is to do that.
2015-04-12 22:38:32,524  INFO ControlerUtils:65 Checking consistency of config done.
2015-04-12 22:38:32,524  INFO Counter:57 [PersonPrepareForSim] handled person # 0
2015-04-12 22:38:32,525  INFO AbstractController:239 ###################################################
2015-04-12 22:38:32,525  INFO AbstractController:240 ### ITERATION 0 BEGINS
2015-04-12 22:38:32,525  INFO ControlerListenerManager:141 calling notifyIterationStarts on org.matsim.core.controler.corelisteners.PlansScoring
2015-04-12 22:38:32,525  INFO EventsManagerImpl:144 adding Event-Handler: org.matsim.core.scoring.EventsToScore
2015-04-12 22:38:32,525  INFO EventsManagerImpl:148   org.matsim.core.events.handler.BasicEventHandler
2015-04-12 22:38:32,525  INFO EventsManagerImpl:207     > org.matsim.api.core.v01.events.Event
2015-04-12 22:38:32,525  INFO EventsManagerImpl:156 
2015-04-12 22:38:32,525  INFO EventsManagerImpl:144 adding Event-Handler: org.matsim.core.scoring.EventsToScore
2015-04-12 22:38:32,525  INFO EventsManagerImpl:148   org.matsim.core.events.handler.BasicEventHandler
2015-04-12 22:38:32,525  INFO EventsManagerImpl:207     > org.matsim.api.core.v01.events.Event
2015-04-12 22:38:32,526  INFO EventsManagerImpl:156 
2015-04-12 22:38:32,526  INFO ControlerListenerManager:146 calling notifyIterationStarts on org.matsim.core.controler.corelisteners.LegHistogramListener
2015-04-12 22:38:32,526  INFO ControlerListenerManager:146 calling notifyIterationStarts on org.matsim.core.controler.corelisteners.LinkStatsControlerListener
2015-04-12 22:38:32,526  INFO ControlerListenerManager:149 [it.0] all ControlerIterationStartsListeners called.
2015-04-12 22:38:32,526  INFO ControlerListenerManager:225 calling notifyBeforeMobsim on org.matsim.core.controler.corelisteners.EventsHandling
2015-04-12 22:38:32,526  INFO EventsManagerImpl:170 resetting Event-Handlers
2015-04-12 22:38:32,526  INFO EventsManagerImpl:177   org.matsim.core.trafficmonitoring.TravelTimeCalculator
2015-04-12 22:38:32,526  INFO EventsManagerImpl:177   org.matsim.analysis.VolumesAnalyzer
2015-04-12 22:38:32,526  INFO EventsManagerImpl:177   org.matsim.analysis.LegHistogram
2015-04-12 22:38:32,527  INFO EventsManagerImpl:177   org.matsim.analysis.CalcLegTimes
2015-04-12 22:38:32,527  INFO EventsManagerImpl:177   org.matsim.contrib.signals.DefaultPlanbasedSignalControlTest$PlanSwitchingTestListener
2015-04-12 22:38:32,527  INFO EventsManagerImpl:177   org.matsim.core.scoring.EventsToScore
2015-04-12 22:38:32,527  INFO EventsManagerImpl:144 adding Event-Handler: org.matsim.core.events.algorithms.EventWriterXML
2015-04-12 22:38:32,527  INFO EventsManagerImpl:148   org.matsim.core.events.algorithms.EventWriter
2015-04-12 22:38:32,527  INFO EventsManagerImpl:148   org.matsim.core.events.handler.BasicEventHandler
2015-04-12 22:38:32,527  INFO EventsManagerImpl:207     > org.matsim.api.core.v01.events.Event
2015-04-12 22:38:32,527  INFO EventsManagerImpl:156 
2015-04-12 22:38:32,527  INFO EventsManagerImpl:144 adding Event-Handler: org.matsim.core.events.algorithms.EventWriterXML
2015-04-12 22:38:32,527  INFO EventsManagerImpl:148   org.matsim.core.events.algorithms.EventWriter
2015-04-12 22:38:32,527  INFO EventsManagerImpl:148   org.matsim.core.events.handler.BasicEventHandler
2015-04-12 22:38:32,527  INFO EventsManagerImpl:207     > org.matsim.api.core.v01.events.Event
2015-04-12 22:38:32,528  INFO EventsManagerImpl:156 
2015-04-12 22:38:32,528  INFO ControlerListenerManager:225 calling notifyBeforeMobsim on org.matsim.core.controler.corelisteners.PlansDumping
2015-04-12 22:38:32,528  INFO PlansDumping:77 dumping plans...
2015-04-12 22:38:32,528  INFO PopulationWriter:95 Population written to: test/output/org/matsim/contrib/signals/DefaultPlanbasedSignalControlTest/planSwitchingTest/ITERS/it.0/0.plans.xml.gz
2015-04-12 22:38:32,528  INFO Counter:57 [PopulationWriter] dumped person # 0
2015-04-12 22:38:32,528  INFO PlansDumping:79 finished plans dump.
2015-04-12 22:38:32,528  INFO ControlerListenerManager:230 calling notifyBeforeMobsim on org.matsim.population.VspPlansCleaner
2015-04-12 22:38:32,528  INFO ControlerListenerManager:233 [it.0] all ControlerBeforeMobsimListeners called.
2015-04-12 22:38:32,529  INFO MobsimListenerManager:49 calling addQueueSimulationListener
2015-04-12 22:38:32,529  INFO MobsimListenerManager:53   assigned class org.matsim.core.mobsim.framework.listeners.MobsimListener to interface org.matsim.core.mobsim.framework.listeners.MobsimBeforeCleanupListener
2015-04-12 22:38:32,529  INFO MobsimListenerManager:53   assigned class org.matsim.core.mobsim.framework.listeners.MobsimListener to interface org.matsim.core.mobsim.framework.listeners.MobsimAfterSimStepListener
2015-04-12 22:38:32,529  INFO MobsimListenerManager:53   assigned class org.matsim.core.mobsim.framework.listeners.MobsimListener to interface org.matsim.core.mobsim.framework.listeners.MobsimInitializedListener
2015-04-12 22:38:32,529  INFO MobsimListenerManager:53   assigned class org.matsim.core.mobsim.framework.listeners.MobsimListener to interface org.matsim.core.mobsim.framework.listeners.MobsimListener
2015-04-12 22:38:32,529  INFO MobsimListenerManager:53   assigned class org.matsim.core.mobsim.framework.listeners.MobsimListener to interface org.matsim.vis.snapshotwriters.SnapshotWriterManager
2015-04-12 22:38:32,529  INFO QNetsimEngine:531 Assigned 6 nodes and 6 links to QSimEngineRunner #0
2015-04-12 22:38:32,529  INFO QNetsimEngine:364 SIMULATION (QNetsimEngine) AT 00:00:00 : #links=0 #nodes=0
2015-04-12 22:38:32,529  INFO QSim:427 SIMULATION (NEW QSim) AT 00:00:00 : #Veh=0 lost=0 simT=0.0s realT=0s; (s/r): 0.0
2015-04-12 22:38:32,529  INFO Gbl:52 used RAM: 250406016B = 244537kB = 238MB  free: 230366080B = 219MB  total: 480772096B = 458MB
2015-04-12 22:38:32,530  INFO AbstractController$6:328 ### ITERATION 0 fires after mobsim event
2015-04-12 22:38:32,530  INFO Gbl:185 Thread performance: Thread=QNetsimEngineRunner_0  cpu-time=7.5684E-5sec
2015-04-12 22:38:32,530  INFO ControlerListenerManager:244 calling notifyAfterMobsim on org.matsim.core.controler.corelisteners.EventsHandling
2015-04-12 22:38:32,530  INFO ControlerListenerManager:249 calling notifyAfterMobsim on org.matsim.analysis.LegTimesControlerListener
2015-04-12 22:38:32,530  INFO Gbl:185 Thread performance: Thread=class org.matsim.core.events.SimStepParallelEventsManagerImpl$ProcessEventsRunnable0  cpu-time=7.5535E-5sec
2015-04-12 22:38:32,530  INFO LegTimesControlerListener:50 [0] average trip (probably: leg) duration is: 0 seconds = 00:00:00
2015-04-12 22:38:32,530  INFO ControlerListenerManager:252 [it.0] all ControlerAfterMobsimListeners called.
2015-04-12 22:38:32,531  INFO AbstractController$4:265 ### ITERATION 0 fires scoring event
2015-04-12 22:38:32,531  INFO ControlerListenerManager:184 calling notifyScoring on org.matsim.core.controler.corelisteners.PlansScoring
2015-04-12 22:38:32,531  INFO EventsToScore:192 it: 0 msaStart: null
2015-04-12 22:38:32,531  INFO ControlerListenerManager:195 [it.0] all ControlerScoringListeners called.
2015-04-12 22:38:32,531  INFO AbstractController$5:273 ### ITERATION 0 fires iteration end event
2015-04-12 22:38:32,531  INFO ControlerListenerManager:161 calling notifyIterationEnds on org.matsim.core.controler.corelisteners.EventsHandling
2015-04-12 22:38:32,531  INFO EventsManagerImpl:161 removing Event-Handler: org.matsim.core.events.algorithms.EventWriterXML
2015-04-12 22:38:32,531  INFO EventsManagerImpl:161 removing Event-Handler: org.matsim.core.events.algorithms.EventWriterXML
2015-04-12 22:38:32,531  INFO ControlerListenerManager:161 calling notifyIterationEnds on org.matsim.core.controler.corelisteners.PlansScoring
2015-04-12 22:38:32,531  INFO EventsManagerImpl:161 removing Event-Handler: org.matsim.core.scoring.EventsToScore
2015-04-12 22:38:32,531  INFO EventsManagerImpl:161 removing Event-Handler: org.matsim.core.scoring.EventsToScore
2015-04-12 22:38:32,532  INFO TravelDistanceStats:122 [TravelDistanceStats] using 2 thread(s).
2015-04-12 22:38:32,532  INFO TravelDistanceStats:135 [TravelDistanceStats] all threads finished.
2015-04-12 22:38:32,532  INFO TravelDistanceStats:155 -- average of the average leg distance per plan (executed plans only): NaN
2015-04-12 22:38:32,532  INFO TravelDistanceStats:156 (TravelDistanceStats takes an average over all legs where the simulation reports travelled distances. These are car legs, pt legs,
2015-04-12 22:38:32,532  INFO TravelDistanceStats:157 (and teleported legs whose route contains a distance.)
2015-04-12 22:38:32,532  INFO ControlerListenerManager:168 calling notifyIterationEnds on org.matsim.counts.CountsControlerListener
2015-04-12 22:38:32,532  INFO ControlerListenerManager:168 calling notifyIterationEnds on org.matsim.analysis.ScoreStatsControlerListener
2015-04-12 22:38:32,532  INFO ScoreStatsControlerListener:187 -- avg. score of the executed plan of each agent: NaN
2015-04-12 22:38:32,532  INFO ScoreStatsControlerListener:188 -- avg. score of the worst plan of each agent: NaN
2015-04-12 22:38:32,532  INFO ScoreStatsControlerListener:189 -- avg. of the avg. plan score per agent: NaN
2015-04-12 22:38:32,532  INFO ScoreStatsControlerListener:190 -- avg. score of the best plan of each agent: NaN
2015-04-12 22:38:32,533  INFO ControlerListenerManager:168 calling notifyIterationEnds on org.matsim.core.controler.corelisteners.LegHistogramListener
2015-04-12 22:38:32,535  INFO LegHistogramListener:81 number of legs:	0	100%
2015-04-12 22:38:32,535  INFO ControlerListenerManager:168 calling notifyIterationEnds on org.matsim.core.controler.corelisteners.LinkStatsControlerListener
2015-04-12 22:38:32,535  INFO ControlerListenerManager:172 [it.0] all ControlerIterationEndsListeners called.
2015-04-12 22:38:32,535  INFO AbstractController:283 ### ITERATION 0 ENDS
2015-04-12 22:38:32,535  INFO AbstractController:284 ###################################################
2015-04-12 22:38:32,535  INFO AbstractController:202 S H U T D O W N   ---   start shutdown.
2015-04-12 22:38:32,535  INFO ControlerListenerManager:122 calling notifyShutdown on org.matsim.core.controler.corelisteners.EventsHandling
2015-04-12 22:38:32,535  INFO ControlerListenerManager:122 calling notifyShutdown on org.matsim.core.controler.corelisteners.PlansScoring
2015-04-12 22:38:32,535  INFO ControlerListenerManager:127 calling notifyShutdown on org.matsim.analysis.ScoreStatsControlerListener
2015-04-12 22:38:32,536  INFO ControlerListenerManager:130 all ControlerShutdownListeners called.
2015-04-12 22:38:32,536  INFO AbstractController:225 S H U T D O W N   ---   shutdown completed.
2015-04-12 22:38:32,536  INFO OutputDirectoryLogging:168 closing the logfile, i.e. messages sent to the logger after this message are not written to the logfile.
