<?xml version="1.0" encoding="utf-8"?>
<!DOCTYPE plans SYSTEM "http://www.matsim.org/files/dtd/plans_v4.dtd">

<plans>

<!-- ====================================================================== -->

	<person id="1">
		<plan>
			<act type="h" link="41" end_time="07:59:00" />
			<leg mode="car" >
				<route trav_time="00:00:05">
					1 0 
				</route>
			</leg>
			<act type="transitInteraction" end_time="08:00:00" link="40"/>
			<leg mode="pt">
				<route trav_time="00:00:30">
					PT1===0===Blue Line===Blue Route 0_20===10 
				</route>
			</leg>
			<act type="transitInteraction" end_time="08:00:10" link="22" />
			<leg mode="car" >
				<route>
					15 16
				</route>
			</leg>
			<act type="w" link="12"  />
		</plan>

	</person>

<!-- ====================================================================== -->

</plans>
