[29.06.2011 13:48:14,511] [main] INFO  org.matsim.core.utils.io.MatsimXmlParser  - Trying to load http://www.matsim.org/files/dtd/transitSchedule_v1.dtd. In some cases (e.g. network interface up but no connection), this may take a bit.
[29.06.2011 13:48:16,366] [main] INFO  org.matsim.core.utils.io.MatsimXmlParser  - Trying to load http://www.matsim.org/files/dtd/transitSchedule_v1.dtd. In some cases (e.g. network interface up but no connection), this may take a bit.
[29.06.2011 13:48:17,943] [main] INFO  playground.droeder.data.GraphMatching  - starting bottom-up-Matching...
[29.06.2011 13:48:17,944] [main] INFO  playground.droeder.data.GraphMatching  - start matching Nodes...
[29.06.2011 13:48:18,039] [main] INFO  playground.droeder.data.GraphMatching  - 27 nodes are unmatched!
[29.06.2011 13:48:18,040] [main] INFO  playground.droeder.data.GraphMatching  - 288 of 315 nodes have one or more match after bottom-up node-matching!
[29.06.2011 13:48:18,041] [main] INFO  playground.droeder.data.GraphMatching  - node-matching finished... 
[29.06.2011 13:48:18,041] [main] INFO  playground.droeder.data.GraphMatching  - compute candidate edges from mapped nodes...
[29.06.2011 13:48:18,051] [main] INFO  playground.droeder.data.GraphMatching  - 420 of 491 edges from the reference-Graph are preMapped
[29.06.2011 13:48:18,052] [main] INFO  playground.droeder.data.GraphMatching  - start bottom-up edge-matching...
[29.06.2011 13:48:22,486] [main] INFO  playground.droeder.data.GraphMatching  - 117 of 491 edges have one or more match after bottom-up edge-matching...
[29.06.2011 13:48:22,487] [main] INFO  playground.droeder.data.GraphMatching  - edge matching finished...
[29.06.2011 13:48:22,487] [main] INFO  playground.droeder.data.GraphMatching  - bottom-up-matching finished...
[29.06.2011 13:48:22,487] [main] INFO  playground.droeder.data.GraphMatching  - starting top-down-Matching...
[29.06.2011 13:48:22,488] [main] INFO  playground.droeder.data.GraphMatching  - starting top-down edge matching...
[29.06.2011 13:48:22,507] [main] INFO  playground.droeder.data.GraphMatching  - processed 1 of 374 of unmatched Edges. New matched: 0
[29.06.2011 13:48:22,516] [main] INFO  playground.droeder.data.GraphMatching  - processed 2 of 374 of unmatched Edges. New matched: 0
[29.06.2011 13:48:22,534] [main] INFO  playground.droeder.data.GraphMatching  - processed 4 of 374 of unmatched Edges. New matched: 0
[29.06.2011 13:48:22,631] [main] INFO  playground.droeder.data.GraphMatching  - processed 8 of 374 of unmatched Edges. New matched: 1
[29.06.2011 13:48:22,972] [main] INFO  playground.droeder.data.GraphMatching  - processed 16 of 374 of unmatched Edges. New matched: 2
[29.06.2011 13:48:23,586] [main] INFO  playground.droeder.data.GraphMatching  - processed 32 of 374 of unmatched Edges. New matched: 4
[29.06.2011 13:48:24,722] [main] INFO  playground.droeder.data.GraphMatching  - processed 64 of 374 of unmatched Edges. New matched: 8
[29.06.2011 13:48:26,731] [main] INFO  playground.droeder.data.GraphMatching  - processed 128 of 374 of unmatched Edges. New matched: 9
[29.06.2011 13:48:30,669] [main] INFO  playground.droeder.data.GraphMatching  - processed 256 of 374 of unmatched Edges. New matched: 10
[29.06.2011 13:48:36,947] [main] INFO  playground.droeder.data.GraphMatching  - 12 edges are new matched after top-down edge matching!
[29.06.2011 13:48:36,948] [main] INFO  playground.droeder.data.GraphMatching  - 129 edges are matched after top-down edge-matching!
[29.06.2011 13:48:36,949] [main] INFO  playground.droeder.data.GraphMatching  - finished top-down edge-matching...
[29.06.2011 13:48:36,950] [main] INFO  playground.droeder.data.GraphMatching  - top-down-matching finished...
[29.06.2011 13:48:41,162] [main] INFO  playground.droeder.gis.DaShapeWriter  - D:/VSP/output/geoAlgorithm/matched_Nodes.shp written!
[29.06.2011 13:48:41,197] [main] INFO  playground.droeder.gis.DaShapeWriter  - D:/VSP/output/geoAlgorithm/unmatched_Nodes.shp written!
[29.06.2011 13:48:41,418] [main] INFO  playground.droeder.gis.DaShapeWriter  - D:/VSP/output/geoAlgorithm/refGraphSegments.shp written!
[29.06.2011 13:48:42,047] [main] INFO  playground.droeder.gis.DaShapeWriter  - D:/VSP/output/geoAlgorithm/matchingGraphSegments.shp written!
[29.06.2011 13:48:42,110] [main] INFO  playground.droeder.gis.DaShapeWriter  - D:/VSP/output/geoAlgorithm/matchedSegments.shp written!
[29.06.2011 13:48:42,568] [main] INFO  playground.droeder.gis.DaShapeWriter  - D:/VSP/output/geoAlgorithm/edgesUnmatchedAfterPreMatching.shp written!
[29.06.2011 14:01:35,604] [main] INFO  org.matsim.core.utils.io.MatsimXmlParser  - Trying to load http://www.matsim.org/files/dtd/transitSchedule_v1.dtd. In some cases (e.g. network interface up but no connection), this may take a bit.
[29.06.2011 14:01:37,594] [main] INFO  org.matsim.core.utils.io.MatsimXmlParser  - Trying to load http://www.matsim.org/files/dtd/transitSchedule_v1.dtd. In some cases (e.g. network interface up but no connection), this may take a bit.
[29.06.2011 14:01:39,134] [main] INFO  playground.droeder.data.GraphMatching  - starting bottom-up-Matching...
[29.06.2011 14:01:39,135] [main] INFO  playground.droeder.data.GraphMatching  - start matching Nodes...
[29.06.2011 14:01:39,254] [main] INFO  playground.droeder.data.GraphMatching  - 27 nodes are unmatched!
[29.06.2011 14:01:39,255] [main] INFO  playground.droeder.data.GraphMatching  - 288 of 315 nodes have one or more match after bottom-up node-matching!
[29.06.2011 14:01:39,255] [main] INFO  playground.droeder.data.GraphMatching  - node-matching finished... 
[29.06.2011 14:01:39,255] [main] INFO  playground.droeder.data.GraphMatching  - compute candidate edges from mapped nodes...
[29.06.2011 14:01:39,266] [main] INFO  playground.droeder.data.GraphMatching  - 420 of 491 edges from the reference-Graph are preMapped
[29.06.2011 14:01:39,266] [main] INFO  playground.droeder.data.GraphMatching  - start bottom-up edge-matching...
[29.06.2011 14:01:45,476] [main] INFO  playground.droeder.data.GraphMatching  - 420 of 491 edges have one or more match after bottom-up edge-matching...
[29.06.2011 14:01:45,476] [main] INFO  playground.droeder.data.GraphMatching  - edge matching finished...
[29.06.2011 14:01:45,477] [main] INFO  playground.droeder.data.GraphMatching  - bottom-up-matching finished...
[29.06.2011 14:01:45,477] [main] INFO  playground.droeder.data.GraphMatching  - starting top-down-Matching...
[29.06.2011 14:01:45,478] [main] INFO  playground.droeder.data.GraphMatching  - starting top-down edge matching...
[29.06.2011 14:01:45,504] [main] INFO  playground.droeder.data.GraphMatching  - processed 1 of 71 of unmatched Edges. New matched: 0
[29.06.2011 14:01:45,516] [main] INFO  playground.droeder.data.GraphMatching  - processed 2 of 71 of unmatched Edges. New matched: 0
[29.06.2011 14:01:45,539] [main] INFO  playground.droeder.data.GraphMatching  - processed 4 of 71 of unmatched Edges. New matched: 0
[29.06.2011 14:01:45,669] [main] INFO  playground.droeder.data.GraphMatching  - processed 8 of 71 of unmatched Edges. New matched: 1
[29.06.2011 14:01:46,112] [main] INFO  playground.droeder.data.GraphMatching  - processed 16 of 71 of unmatched Edges. New matched: 2
[29.06.2011 14:01:46,756] [main] INFO  playground.droeder.data.GraphMatching  - processed 32 of 71 of unmatched Edges. New matched: 4
[29.06.2011 14:01:47,884] [main] INFO  playground.droeder.data.GraphMatching  - processed 64 of 71 of unmatched Edges. New matched: 8
[29.06.2011 14:01:48,062] [main] INFO  playground.droeder.data.GraphMatching  - 9 edges are new matched after top-down edge matching!
[29.06.2011 14:01:48,063] [main] INFO  playground.droeder.data.GraphMatching  - 429 edges are matched after top-down edge-matching!
[29.06.2011 14:01:48,063] [main] INFO  playground.droeder.data.GraphMatching  - finished top-down edge-matching...
[29.06.2011 14:01:48,064] [main] INFO  playground.droeder.data.GraphMatching  - top-down-matching finished...
[29.06.2011 14:01:49,268] [main] INFO  playground.droeder.gis.DaShapeWriter  - D:/VSP/output/geoAlgorithm/matched_Nodes.shp written!
[29.06.2011 14:01:49,296] [main] INFO  playground.droeder.gis.DaShapeWriter  - D:/VSP/output/geoAlgorithm/unmatched_Nodes.shp written!
[29.06.2011 14:01:49,465] [main] INFO  playground.droeder.gis.DaShapeWriter  - D:/VSP/output/geoAlgorithm/refGraphSegments.shp written!
[29.06.2011 14:01:49,999] [main] INFO  playground.droeder.gis.DaShapeWriter  - D:/VSP/output/geoAlgorithm/matchingGraphSegments.shp written!
[29.06.2011 14:01:50,184] [main] INFO  playground.droeder.gis.DaShapeWriter  - D:/VSP/output/geoAlgorithm/matchedSegments.shp written!
[29.06.2011 14:02:14,811] [main] INFO  org.matsim.core.utils.io.MatsimXmlParser  - Trying to load http://www.matsim.org/files/dtd/transitSchedule_v1.dtd. In some cases (e.g. network interface up but no connection), this may take a bit.
[29.06.2011 14:02:16,768] [main] INFO  org.matsim.core.utils.io.MatsimXmlParser  - Trying to load http://www.matsim.org/files/dtd/transitSchedule_v1.dtd. In some cases (e.g. network interface up but no connection), this may take a bit.
[29.06.2011 14:02:18,275] [main] INFO  playground.droeder.data.GraphMatching  - starting bottom-up-Matching...
[29.06.2011 14:02:18,276] [main] INFO  playground.droeder.data.GraphMatching  - start matching Nodes...
[29.06.2011 14:02:18,393] [main] INFO  playground.droeder.data.GraphMatching  - 27 nodes are unmatched!
[29.06.2011 14:02:18,393] [main] INFO  playground.droeder.data.GraphMatching  - 288 of 315 nodes have one or more match after bottom-up node-matching!
[29.06.2011 14:02:18,394] [main] INFO  playground.droeder.data.GraphMatching  - node-matching finished... 
[29.06.2011 14:02:18,394] [main] INFO  playground.droeder.data.GraphMatching  - compute candidate edges from mapped nodes...
[29.06.2011 14:02:18,403] [main] INFO  playground.droeder.data.GraphMatching  - 420 of 491 edges from the reference-Graph are preMapped
[29.06.2011 14:02:18,404] [main] INFO  playground.droeder.data.GraphMatching  - start bottom-up edge-matching...
[29.06.2011 14:02:22,681] [main] INFO  playground.droeder.data.GraphMatching  - 420 of 491 edges have one or more match after bottom-up edge-matching...
[29.06.2011 14:02:22,682] [main] INFO  playground.droeder.data.GraphMatching  - edge matching finished...
[29.06.2011 14:02:22,682] [main] INFO  playground.droeder.data.GraphMatching  - bottom-up-matching finished...
[29.06.2011 14:02:22,682] [main] INFO  playground.droeder.data.GraphMatching  - starting top-down-Matching...
[29.06.2011 14:02:22,683] [main] INFO  playground.droeder.data.GraphMatching  - starting top-down edge matching...
[29.06.2011 14:02:22,702] [main] INFO  playground.droeder.data.GraphMatching  - processed 1 of 71 of unmatched Edges. New matched: 0
[29.06.2011 14:02:22,711] [main] INFO  playground.droeder.data.GraphMatching  - processed 2 of 71 of unmatched Edges. New matched: 0
[29.06.2011 14:02:22,728] [main] INFO  playground.droeder.data.GraphMatching  - processed 4 of 71 of unmatched Edges. New matched: 0
[29.06.2011 14:02:22,825] [main] INFO  playground.droeder.data.GraphMatching  - processed 8 of 71 of unmatched Edges. New matched: 1
[29.06.2011 14:02:23,162] [main] INFO  playground.droeder.data.GraphMatching  - processed 16 of 71 of unmatched Edges. New matched: 2
[29.06.2011 14:02:23,750] [main] INFO  playground.droeder.data.GraphMatching  - processed 32 of 71 of unmatched Edges. New matched: 4
[29.06.2011 14:02:24,858] [main] INFO  playground.droeder.data.GraphMatching  - processed 64 of 71 of unmatched Edges. New matched: 8
[29.06.2011 14:02:25,035] [main] INFO  playground.droeder.data.GraphMatching  - 9 edges are new matched after top-down edge matching!
[29.06.2011 14:02:25,036] [main] INFO  playground.droeder.data.GraphMatching  - 429 edges are matched after top-down edge-matching!
[29.06.2011 14:02:25,036] [main] INFO  playground.droeder.data.GraphMatching  - finished top-down edge-matching...
[29.06.2011 14:02:25,036] [main] INFO  playground.droeder.data.GraphMatching  - top-down-matching finished...
[29.06.2011 14:02:26,477] [main] INFO  playground.droeder.gis.DaShapeWriter  - D:/VSP/output/geoAlgorithm/matched_Nodes.shp written!
[29.06.2011 14:02:26,507] [main] INFO  playground.droeder.gis.DaShapeWriter  - D:/VSP/output/geoAlgorithm/unmatched_Nodes.shp written!
[29.06.2011 14:02:26,668] [main] INFO  playground.droeder.gis.DaShapeWriter  - D:/VSP/output/geoAlgorithm/refGraphSegments.shp written!
[29.06.2011 14:02:27,091] [main] INFO  playground.droeder.gis.DaShapeWriter  - D:/VSP/output/geoAlgorithm/matchingGraphSegments.shp written!
[29.06.2011 14:02:27,218] [main] INFO  playground.droeder.gis.DaShapeWriter  - D:/VSP/output/geoAlgorithm/matchedSegments.shp written!
[30.06.2011 12:42:21,252] [main] INFO  playground.andreas.osmBB.OsmTransitMain  - Start...
[30.06.2011 12:42:22,431] [main] INFO  playground.andreas.osmBB.OsmTransitMain  - Reading D:/VSP/output/osm/berlin.osm
[30.06.2011 12:42:26,346] [main] INFO  playground.mzilske.osm.TransitNetworkSink  - 50000 nodes processed so far
[30.06.2011 12:42:27,625] [main] INFO  playground.mzilske.osm.TransitNetworkSink  - 100000 nodes processed so far
[30.06.2011 12:42:28,563] [main] INFO  playground.mzilske.osm.TransitNetworkSink  - 150000 nodes processed so far
[30.06.2011 12:42:29,653] [main] INFO  playground.mzilske.osm.TransitNetworkSink  - 200000 nodes processed so far
[30.06.2011 12:42:30,423] [main] INFO  playground.mzilske.osm.TransitNetworkSink  - 250000 nodes processed so far
[30.06.2011 12:42:31,806] [main] INFO  playground.mzilske.osm.TransitNetworkSink  - 300000 nodes processed so far
[30.06.2011 12:42:32,592] [main] INFO  playground.mzilske.osm.TransitNetworkSink  - 350000 nodes processed so far
[30.06.2011 12:42:33,238] [main] INFO  playground.mzilske.osm.TransitNetworkSink  - 400000 nodes processed so far
[30.06.2011 12:42:35,047] [main] INFO  playground.mzilske.osm.TransitNetworkSink  - 450000 nodes processed so far
[30.06.2011 12:42:35,706] [main] INFO  playground.mzilske.osm.TransitNetworkSink  - 500000 nodes processed so far
[30.06.2011 12:42:36,541] [main] INFO  playground.mzilske.osm.TransitNetworkSink  - 550000 nodes processed so far
[30.06.2011 12:42:37,390] [main] INFO  playground.mzilske.osm.TransitNetworkSink  - 600000 nodes processed so far
[30.06.2011 12:42:38,078] [main] INFO  playground.mzilske.osm.TransitNetworkSink  - 650000 nodes processed so far
[30.06.2011 12:42:40,435] [main] INFO  playground.mzilske.osm.TransitNetworkSink  - 700000 nodes processed so far
[30.06.2011 12:42:43,312] [main] INFO  playground.mzilske.osm.TransitNetworkSink  - 750000 nodes processed so far
[30.06.2011 12:42:46,875] [main] INFO  playground.mzilske.osm.TransitNetworkSink  - 800000 nodes processed so far
[30.06.2011 12:43:17,275] [main] INFO  playground.andreas.osmBB.OsmTransitMain  - Start...
[30.06.2011 12:43:17,368] [main] INFO  playground.andreas.osmBB.OsmTransitMain  - Reading D:/VSP/output/osm/berlin.osm
[30.06.2011 12:43:19,203] [main] INFO  playground.mzilske.osm.TransitNetworkSink  - 50000 nodes processed so far
[30.06.2011 12:43:20,292] [main] INFO  playground.mzilske.osm.TransitNetworkSink  - 100000 nodes processed so far
[30.06.2011 12:43:21,085] [main] INFO  playground.mzilske.osm.TransitNetworkSink  - 150000 nodes processed so far
[30.06.2011 12:43:21,898] [main] INFO  playground.mzilske.osm.TransitNetworkSink  - 200000 nodes processed so far
[30.06.2011 12:43:23,961] [main] INFO  playground.mzilske.osm.TransitNetworkSink  - 250000 nodes processed so far
[30.06.2011 12:43:25,716] [main] INFO  playground.mzilske.osm.TransitNetworkSink  - 300000 nodes processed so far
[30.06.2011 12:43:26,586] [main] INFO  playground.mzilske.osm.TransitNetworkSink  - 350000 nodes processed so far
[30.06.2011 12:43:27,413] [main] INFO  playground.mzilske.osm.TransitNetworkSink  - 400000 nodes processed so far
[30.06.2011 12:43:28,313] [main] INFO  playground.mzilske.osm.TransitNetworkSink  - 450000 nodes processed so far
[30.06.2011 12:43:29,018] [main] INFO  playground.mzilske.osm.TransitNetworkSink  - 500000 nodes processed so far
[30.06.2011 12:43:30,006] [main] INFO  playground.mzilske.osm.TransitNetworkSink  - 550000 nodes processed so far
[30.06.2011 12:43:33,040] [main] INFO  playground.mzilske.osm.TransitNetworkSink  - 600000 nodes processed so far
[30.06.2011 12:43:34,671] [main] INFO  playground.mzilske.osm.TransitNetworkSink  - 650000 nodes processed so far
[30.06.2011 12:43:35,384] [main] INFO  playground.mzilske.osm.TransitNetworkSink  - 700000 nodes processed so far
[30.06.2011 12:43:36,350] [main] INFO  playground.mzilske.osm.TransitNetworkSink  - 750000 nodes processed so far
[30.06.2011 12:43:37,315] [main] INFO  playground.mzilske.osm.TransitNetworkSink  - 800000 nodes processed so far
[30.06.2011 12:43:38,416] [main] INFO  playground.mzilske.osm.TransitNetworkSink  - 850000 nodes processed so far
[30.06.2011 12:43:43,656] [main] INFO  playground.mzilske.osm.TransitNetworkSink  - 900000 nodes processed so far
[30.06.2011 12:45:24,546] [main] INFO  playground.andreas.osmBB.OsmTransitMain  - Start...
[30.06.2011 12:45:24,651] [main] INFO  playground.andreas.osmBB.OsmTransitMain  - Reading D:/VSP/output/osm/berlin.osm
[30.06.2011 12:45:26,417] [main] INFO  playground.mzilske.osm.TransitNetworkSink  - 50000 nodes processed so far
[30.06.2011 12:45:27,537] [main] INFO  playground.mzilske.osm.TransitNetworkSink  - 100000 nodes processed so far
[30.06.2011 12:45:28,365] [main] INFO  playground.mzilske.osm.TransitNetworkSink  - 150000 nodes processed so far
[30.06.2011 12:45:29,195] [main] INFO  playground.mzilske.osm.TransitNetworkSink  - 200000 nodes processed so far
[30.06.2011 12:45:30,696] [main] INFO  playground.mzilske.osm.TransitNetworkSink  - 250000 nodes processed so far
[30.06.2011 12:45:32,813] [main] INFO  playground.mzilske.osm.TransitNetworkSink  - 300000 nodes processed so far
[30.06.2011 12:45:33,756] [main] INFO  playground.mzilske.osm.TransitNetworkSink  - 350000 nodes processed so far
[30.06.2011 12:45:34,591] [main] INFO  playground.mzilske.osm.TransitNetworkSink  - 400000 nodes processed so far
[30.06.2011 12:45:35,527] [main] INFO  playground.mzilske.osm.TransitNetworkSink  - 450000 nodes processed so far
[30.06.2011 12:45:36,422] [main] INFO  playground.mzilske.osm.TransitNetworkSink  - 500000 nodes processed so far
[30.06.2011 12:45:37,432] [main] INFO  playground.mzilske.osm.TransitNetworkSink  - 550000 nodes processed so far
[30.06.2011 12:45:39,815] [main] INFO  playground.mzilske.osm.TransitNetworkSink  - 600000 nodes processed so far
[30.06.2011 12:45:40,753] [main] INFO  playground.mzilske.osm.TransitNetworkSink  - 650000 nodes processed so far
[30.06.2011 12:45:41,472] [main] INFO  playground.mzilske.osm.TransitNetworkSink  - 700000 nodes processed so far
[30.06.2011 12:45:42,345] [main] INFO  playground.mzilske.osm.TransitNetworkSink  - 750000 nodes processed so far
[30.06.2011 12:45:43,272] [main] INFO  playground.mzilske.osm.TransitNetworkSink  - 800000 nodes processed so far
[30.06.2011 12:45:44,601] [main] INFO  playground.mzilske.osm.TransitNetworkSink  - 850000 nodes processed so far
[30.06.2011 12:45:45,388] [main] INFO  playground.mzilske.osm.TransitNetworkSink  - 900000 nodes processed so far
[30.06.2011 13:59:35,743] [main] INFO  playground.andreas.osmBB.OsmTransitMain  - Start...
[30.06.2011 13:59:43,555] [main] INFO  playground.andreas.osmBB.OsmTransitMain  - Reading D:/VSP/output/osm/berlin.osm
[30.06.2011 13:59:49,839] [main] INFO  playground.mzilske.osm.TransitNetworkSink  - 50000 nodes processed so far
[30.06.2011 13:59:52,885] [main] INFO  playground.mzilske.osm.TransitNetworkSink  - 100000 nodes processed so far
[30.06.2011 13:59:54,924] [main] INFO  playground.mzilske.osm.TransitNetworkSink  - 150000 nodes processed so far
[30.06.2011 13:59:55,872] [main] INFO  playground.mzilske.osm.TransitNetworkSink  - 200000 nodes processed so far
[30.06.2011 13:59:57,361] [main] INFO  playground.mzilske.osm.TransitNetworkSink  - 250000 nodes processed so far
[30.06.2011 14:00:00,326] [main] INFO  playground.mzilske.osm.TransitNetworkSink  - 300000 nodes processed so far
[30.06.2011 14:00:01,593] [main] INFO  playground.mzilske.osm.TransitNetworkSink  - 350000 nodes processed so far
[30.06.2011 14:00:02,624] [main] INFO  playground.mzilske.osm.TransitNetworkSink  - 400000 nodes processed so far
[30.06.2011 14:00:04,575] [main] INFO  playground.mzilske.osm.TransitNetworkSink  - 450000 nodes processed so far
[30.06.2011 14:00:05,390] [main] INFO  playground.mzilske.osm.TransitNetworkSink  - 500000 nodes processed so far
[30.06.2011 14:00:06,342] [main] INFO  playground.mzilske.osm.TransitNetworkSink  - 550000 nodes processed so far
[30.06.2011 14:00:08,694] [main] INFO  playground.mzilske.osm.TransitNetworkSink  - 600000 nodes processed so far
[30.06.2011 14:00:09,665] [main] INFO  playground.mzilske.osm.TransitNetworkSink  - 650000 nodes processed so far
[30.06.2011 14:00:10,635] [main] INFO  playground.mzilske.osm.TransitNetworkSink  - 700000 nodes processed so far
[30.06.2011 14:00:11,468] [main] INFO  playground.mzilske.osm.TransitNetworkSink  - 750000 nodes processed so far
[30.06.2011 14:00:12,596] [main] INFO  playground.mzilske.osm.TransitNetworkSink  - 800000 nodes processed so far
[30.06.2011 14:00:15,798] [main] INFO  playground.mzilske.osm.TransitNetworkSink  - 850000 nodes processed so far
[30.06.2011 14:00:27,017] [main] INFO  playground.mzilske.osm.TransitNetworkSink  - 900000 nodes processed so far
[30.06.2011 14:00:35,622] [main] WARN  playground.mzilske.osm.NetworkSink  - Could not parse freespeed tag:For input string: "5 mph". Ignoring it.
[30.06.2011 14:00:35,623] [main] WARN  playground.mzilske.osm.NetworkSink  - Could not parse freespeed tag:For input string: "5 mph". Ignoring it.
[30.06.2011 14:00:41,393] [main] WARN  playground.mzilske.osm.NetworkSink  - Could not parse freespeed tag:For input string: "walk". Ignoring it.
[30.06.2011 14:00:41,394] [main] WARN  playground.mzilske.osm.NetworkSink  - Could not parse freespeed tag:For input string: "walk". Ignoring it.
[30.06.2011 14:00:41,394] [main] WARN  playground.mzilske.osm.NetworkSink  - Could not parse freespeed tag:For input string: "walk". Ignoring it.
[30.06.2011 14:00:41,395] [main] WARN  playground.mzilske.osm.NetworkSink  - Could not parse freespeed tag:For input string: "walk". Ignoring it.
[30.06.2011 14:00:41,395] [main] WARN  playground.mzilske.osm.NetworkSink  - Could not parse freespeed tag:For input string: "walk". Ignoring it.
[30.06.2011 14:00:41,395] [main] WARN  playground.mzilske.osm.NetworkSink  - Could not parse freespeed tag:For input string: "walk". Ignoring it.
[30.06.2011 14:00:41,396] [main] WARN  playground.mzilske.osm.NetworkSink  - Could not parse freespeed tag:For input string: "walk". Ignoring it.
[30.06.2011 14:00:41,396] [main] WARN  playground.mzilske.osm.NetworkSink  - Could not parse freespeed tag:For input string: "walk". Ignoring it.
[30.06.2011 14:00:41,397] [main] WARN  playground.mzilske.osm.NetworkSink  - Could not parse freespeed tag:For input string: "walk". Ignoring it.
[30.06.2011 14:00:41,397] [main] WARN  playground.mzilske.osm.NetworkSink  - Could not parse freespeed tag:For input string: "walk". Ignoring it.
[30.06.2011 14:00:41,397] [main] WARN  playground.mzilske.osm.NetworkSink  - Could not parse freespeed tag:For input string: "walk". Ignoring it.
[30.06.2011 14:07:06,128] [main] INFO  playground.andreas.osmBB.OsmTransitMain  - Start...
[30.06.2011 14:07:08,673] [main] INFO  playground.andreas.osmBB.OsmTransitMain  - Reading D:/VSP/output/osm/berlin.osm
[30.06.2011 14:07:11,883] [main] INFO  playground.mzilske.osm.TransitNetworkSink  - 50000 nodes processed so far
[30.06.2011 14:07:13,070] [main] INFO  playground.mzilske.osm.TransitNetworkSink  - 100000 nodes processed so far
[30.06.2011 14:07:14,079] [main] INFO  playground.mzilske.osm.TransitNetworkSink  - 150000 nodes processed so far
[30.06.2011 14:07:17,322] [main] INFO  playground.mzilske.osm.TransitNetworkSink  - 200000 nodes processed so far
[30.06.2011 14:07:22,729] [main] INFO  playground.mzilske.osm.TransitNetworkSink  - 250000 nodes processed so far
[30.06.2011 14:07:29,376] [main] INFO  playground.mzilske.osm.TransitNetworkSink  - 300000 nodes processed so far
[30.06.2011 14:07:34,057] [main] INFO  playground.mzilske.osm.TransitNetworkSink  - 350000 nodes processed so far
[30.06.2011 14:07:37,382] [main] INFO  playground.mzilske.osm.TransitNetworkSink  - 400000 nodes processed so far
[30.06.2011 14:07:40,867] [main] INFO  playground.mzilske.osm.TransitNetworkSink  - 450000 nodes processed so far
[30.06.2011 14:07:45,460] [main] INFO  playground.mzilske.osm.TransitNetworkSink  - 500000 nodes processed so far
[30.06.2011 14:07:51,518] [main] INFO  playground.mzilske.osm.TransitNetworkSink  - 550000 nodes processed so far
[30.06.2011 14:07:57,061] [main] INFO  playground.mzilske.osm.TransitNetworkSink  - 600000 nodes processed so far
[30.06.2011 14:08:01,892] [main] INFO  playground.mzilske.osm.TransitNetworkSink  - 650000 nodes processed so far
[30.06.2011 14:08:04,354] [main] INFO  playground.mzilske.osm.TransitNetworkSink  - 700000 nodes processed so far
[30.06.2011 14:08:06,488] [main] INFO  playground.mzilske.osm.TransitNetworkSink  - 750000 nodes processed so far
[30.06.2011 14:08:08,538] [main] INFO  playground.mzilske.osm.TransitNetworkSink  - 800000 nodes processed so far
[30.06.2011 14:08:10,250] [main] INFO  playground.mzilske.osm.TransitNetworkSink  - 850000 nodes processed so far
[30.06.2011 14:08:16,584] [main] INFO  playground.mzilske.osm.TransitNetworkSink  - 900000 nodes processed so far
[30.06.2011 14:08:20,072] [main] WARN  playground.mzilske.osm.NetworkSink  - Could not parse freespeed tag:For input string: "5 mph". Ignoring it.
[30.06.2011 14:08:20,073] [main] WARN  playground.mzilske.osm.NetworkSink  - Could not parse freespeed tag:For input string: "5 mph". Ignoring it.
[30.06.2011 14:08:22,240] [main] WARN  playground.mzilske.osm.NetworkSink  - Could not parse freespeed tag:For input string: "walk". Ignoring it.
[30.06.2011 14:08:22,241] [main] WARN  playground.mzilske.osm.NetworkSink  - Could not parse freespeed tag:For input string: "walk". Ignoring it.
[30.06.2011 14:08:22,241] [main] WARN  playground.mzilske.osm.NetworkSink  - Could not parse freespeed tag:For input string: "walk". Ignoring it.
[30.06.2011 14:08:22,242] [main] WARN  playground.mzilske.osm.NetworkSink  - Could not parse freespeed tag:For input string: "walk". Ignoring it.
[30.06.2011 14:08:22,242] [main] WARN  playground.mzilske.osm.NetworkSink  - Could not parse freespeed tag:For input string: "walk". Ignoring it.
[30.06.2011 14:08:22,242] [main] WARN  playground.mzilske.osm.NetworkSink  - Could not parse freespeed tag:For input string: "walk". Ignoring it.
[30.06.2011 14:08:22,243] [main] WARN  playground.mzilske.osm.NetworkSink  - Could not parse freespeed tag:For input string: "walk". Ignoring it.
[30.06.2011 14:08:22,243] [main] WARN  playground.mzilske.osm.NetworkSink  - Could not parse freespeed tag:For input string: "walk". Ignoring it.
[30.06.2011 14:08:22,243] [main] WARN  playground.mzilske.osm.NetworkSink  - Could not parse freespeed tag:For input string: "walk". Ignoring it.
[30.06.2011 14:08:22,244] [main] WARN  playground.mzilske.osm.NetworkSink  - Could not parse freespeed tag:For input string: "walk". Ignoring it.
[30.06.2011 14:08:22,244] [main] WARN  playground.mzilske.osm.NetworkSink  - Could not parse freespeed tag:For input string: "walk". Ignoring it.
[30.06.2011 14:08:40,256] [main] WARN  playground.mzilske.osm.NetworkSink  - Could not parse lanes tag:For input string: "3;4". Ignoring it.
[30.06.2011 14:08:40,257] [main] WARN  playground.mzilske.osm.NetworkSink  - Could not parse lanes tag:For input string: "3;4". Ignoring it.
[30.06.2011 14:08:40,257] [main] WARN  playground.mzilske.osm.NetworkSink  - Could not parse lanes tag:For input string: "3;4". Ignoring it.
[30.06.2011 14:08:51,171] [main] WARN  playground.mzilske.osm.NetworkSink  - Could not parse freespeed tag:For input string: "walk". Ignoring it.
[30.06.2011 14:08:51,172] [main] WARN  playground.mzilske.osm.NetworkSink  - Could not parse freespeed tag:For input string: "walk". Ignoring it.
[30.06.2011 14:08:51,173] [main] WARN  playground.mzilske.osm.NetworkSink  - Could not parse freespeed tag:For input string: "walk". Ignoring it.
[30.06.2011 14:08:51,199] [main] WARN  playground.mzilske.osm.NetworkSink  - Could not parse freespeed tag:For input string: "walk". Ignoring it.
[30.06.2011 14:08:51,218] [main] WARN  playground.mzilske.osm.NetworkSink  - Could not parse freespeed tag:For input string: "walk". Ignoring it.
[30.06.2011 14:08:51,219] [main] WARN  playground.mzilske.osm.NetworkSink  - Could not parse freespeed tag:For input string: "walk". Ignoring it.
[30.06.2011 14:08:51,221] [main] WARN  playground.mzilske.osm.NetworkSink  - Could not parse freespeed tag:For input string: "walk". Ignoring it.
[30.06.2011 14:08:51,222] [main] WARN  playground.mzilske.osm.NetworkSink  - Could not parse freespeed tag:For input string: "walk". Ignoring it.
[30.06.2011 14:08:51,222] [main] WARN  playground.mzilske.osm.NetworkSink  - Could not parse freespeed tag:For input string: "walk". Ignoring it.
[30.06.2011 14:08:51,223] [main] WARN  playground.mzilske.osm.NetworkSink  - Could not parse freespeed tag:For input string: "walk". Ignoring it.
[30.06.2011 14:08:51,223] [main] WARN  playground.mzilske.osm.NetworkSink  - Could not parse freespeed tag:For input string: "walk". Ignoring it.
[30.06.2011 14:08:51,224] [main] WARN  playground.mzilske.osm.NetworkSink  - Could not parse freespeed tag:For input string: "walk". Ignoring it.
[30.06.2011 14:09:37,024] [main] WARN  playground.mzilske.osm.NetworkSink  - Could not parse lanes tag:For input string: "3; 4; 2". Ignoring it.
[30.06.2011 14:09:51,097] [main] WARN  playground.mzilske.osm.NetworkSink  - Could not parse lanes tag:For input string: "3;4". Ignoring it.
[30.06.2011 14:09:51,099] [main] WARN  playground.mzilske.osm.NetworkSink  - Could not parse lanes tag:For input string: "3;4". Ignoring it.
[30.06.2011 14:09:52,312] [main] WARN  playground.mzilske.osm.NetworkSink  - Could not parse lanes tag:For input string: "3; 4; 2". Ignoring it.
[30.06.2011 14:09:52,312] [main] WARN  playground.mzilske.osm.NetworkSink  - Could not parse lanes tag:For input string: "3; 4; 2". Ignoring it.
[30.06.2011 14:09:52,313] [main] WARN  playground.mzilske.osm.NetworkSink  - Could not parse lanes tag:For input string: "3; 4; 2". Ignoring it.
[30.06.2011 14:09:52,313] [main] WARN  playground.mzilske.osm.NetworkSink  - Could not parse lanes tag:For input string: "3; 4; 2". Ignoring it.
[30.06.2011 14:09:52,313] [main] WARN  playground.mzilske.osm.NetworkSink  - Could not parse lanes tag:For input string: "3; 4; 2". Ignoring it.
[30.06.2011 14:09:52,314] [main] WARN  playground.mzilske.osm.NetworkSink  - Could not parse lanes tag:For input string: "3; 4; 2". Ignoring it.
[30.06.2011 14:09:58,352] [main] WARN  playground.mzilske.osm.NetworkSink  - Could not parse lanes tag:For input string: "3;4". Ignoring it.
[30.06.2011 14:09:58,353] [main] WARN  playground.mzilske.osm.NetworkSink  - Could not parse lanes tag:For input string: "3;4". Ignoring it.
[30.06.2011 14:09:58,353] [main] WARN  playground.mzilske.osm.NetworkSink  - Could not parse lanes tag:For input string: "3;4". Ignoring it.
[30.06.2011 14:09:58,354] [main] WARN  playground.mzilske.osm.NetworkSink  - Could not parse lanes tag:For input string: "3;4". Ignoring it.
[30.06.2011 14:10:05,107] [main] WARN  playground.mzilske.osm.NetworkSink  - Could not parse lanes tag:For input string: "3; 4; 2". Ignoring it.
[30.06.2011 14:10:05,109] [main] WARN  playground.mzilske.osm.NetworkSink  - Could not parse lanes tag:For input string: "3; 4; 2". Ignoring it.
[30.06.2011 14:10:05,110] [main] WARN  playground.mzilske.osm.NetworkSink  - Could not parse lanes tag:For input string: "3; 4; 2". Ignoring it.
[30.06.2011 14:10:05,111] [main] WARN  playground.mzilske.osm.NetworkSink  - Could not parse lanes tag:For input string: "3; 4; 2". Ignoring it.
[30.06.2011 14:10:05,112] [main] WARN  playground.mzilske.osm.NetworkSink  - Could not parse lanes tag:For input string: "3; 4; 2". Ignoring it.
[30.06.2011 14:15:57,785] [main] INFO  playground.mzilske.osm.TransitNetworkSink  - Got an empty route tag for tags {ref=TXL, type=route, operator=BVG, network=VBB, name=Bus TXL}
[30.06.2011 14:16:03,870] [main] INFO  playground.mzilske.osm.TransitNetworkSink  - Got an empty route tag for tags {ref=N5, type=route, operator=BVG, network=VBB, name=Buslinie N5}
[30.06.2011 14:16:03,870] [main] INFO  playground.mzilske.osm.TransitNetworkSink  - Got an empty route tag for tags {ref=N8, type=route, operator=BVG, network=VBB, name=Buslinie N8}
[30.06.2011 14:16:03,870] [main] INFO  playground.mzilske.osm.TransitNetworkSink  - Got an empty route tag for tags {ref=N42, type=route, operator=BVG, name=Buslinie N42}
[30.06.2011 14:16:03,870] [main] INFO  playground.mzilske.osm.TransitNetworkSink  - Got an empty route tag for tags {ref=N65, type=route, operator=BVG, network=VBB, name=Buslinie N65}
[30.06.2011 14:16:03,870] [main] INFO  playground.mzilske.osm.TransitNetworkSink  - Got an empty route tag for tags {type=route, ref=N40, operator=BVG}
[30.06.2011 14:16:03,901] [main] INFO  playground.mzilske.osm.TransitNetworkSink  - Got an empty route tag for tags {type=route, network=VBB, operator=BVG, name=Buslinien in Berlin}
[30.06.2011 14:18:30,885] [main] INFO  playground.mzilske.osm.TransitNetworkSink  - Got an empty route tag for tags {type=route, operator=BVG, name=NachtBus-Linien in Berlin}
[30.06.2011 14:18:30,885] [main] INFO  playground.mzilske.osm.TransitNetworkSink  - Got an empty route tag for tags {type=route, network=VBB, operator=BVG, name=MetroBus-Linien in Berlin}
[30.06.2011 14:20:46,716] [main] INFO  playground.mzilske.osm.TransitNetworkSink  - Got an empty route tag for tags {ref=160, line=bus, bus=regular, type=route, operator=BVG, name=Buslinie 160}
[30.06.2011 14:21:18,307] [main] INFO  playground.mzilske.osm.TransitNetworkSink  - Got an empty route tag for tags {ref=163, bus=regular, wheelchair=yes, name=Buslinie 163, line=bus, type=route, network=VBB, operator=BVG}
[30.06.2011 14:21:18,307] [main] INFO  playground.mzilske.osm.TransitNetworkSink  - Got an empty route tag for tags {ref=162, bus=regular, wheelchair=yes, name=Buslinie 162, line=bus, by_night=yes, type=route, operator=BVG, network=VBB}
[30.06.2011 14:21:18,307] [main] INFO  playground.mzilske.osm.TransitNetworkSink  - Got an empty route tag for tags {ref=164, bus=regular, wheelchair=yes, name=Buslinie 164, line=bus, type=route, network=VBB, operator=BVG}
[30.06.2011 14:21:28,682] [main] INFO  playground.mzilske.osm.TransitNetworkSink  - Got an empty route tag for tags {ref=271, bus=regular, wheelchair=yes, name=Buslinie 271, line=bus, type=route, network=VBB, operator=BVG}
[30.06.2011 14:21:28,682] [main] INFO  playground.mzilske.osm.TransitNetworkSink  - Got an empty route tag for tags {ref=260, bus=regular, wheelchair=yes, name=Buslinie 260, line=bus, type=route, network=VBB, operator=BVG}
[30.06.2011 14:21:28,682] [main] INFO  playground.mzilske.osm.TransitNetworkSink  - Got an empty route tag for tags {ref=371, bus=regular, wheelchair=yes, name=Buslinie 371, line=bus, type=route, network=VBB, operator=BVG}
[30.06.2011 14:21:28,682] [main] INFO  playground.mzilske.osm.TransitNetworkSink  - Got an empty route tag for tags {ref=363, bus=regular, wheelchair=yes, name=Buslinie 363, line=bus, type=route, network=VBB, operator=BVG}
[30.06.2011 15:22:33,729] [main] INFO  org.matsim.core.utils.io.MatsimXmlParser  - Trying to load http://www.matsim.org/files/dtd/transitSchedule_v1.dtd. In some cases (e.g. network interface up but no connection), this may take a bit.
[30.06.2011 15:22:40,251] [main] INFO  org.matsim.core.utils.io.MatsimXmlParser  - Trying to load http://www.matsim.org/files/dtd/transitSchedule_v1.dtd. In some cases (e.g. network interface up but no connection), this may take a bit.
[30.06.2011 15:22:43,390] [main] INFO  playground.droeder.data.GraphMatching  - starting bottom-up-Matching...
[30.06.2011 15:22:43,390] [main] INFO  playground.droeder.data.GraphMatching  - start matching Nodes...
[30.06.2011 15:22:44,452] [main] INFO  playground.droeder.data.GraphMatching  - 27 nodes are unmatched!
[30.06.2011 15:22:44,452] [main] INFO  playground.droeder.data.GraphMatching  - 288 of 315 nodes have one or more match after bottom-up node-matching!
[30.06.2011 15:22:44,452] [main] INFO  playground.droeder.data.GraphMatching  - node-matching finished... 
[30.06.2011 15:22:44,452] [main] INFO  playground.droeder.data.GraphMatching  - compute candidate edges from mapped nodes...
[30.06.2011 15:22:44,468] [main] INFO  playground.droeder.data.GraphMatching  - 420 of 491 edges from the reference-Graph are preMapped
[30.06.2011 15:22:44,468] [main] INFO  playground.droeder.data.GraphMatching  - start bottom-up edge-matching...
[30.06.2011 15:22:50,100] [main] INFO  playground.droeder.data.GraphMatching  - 420 of 491 edges have one or more match after bottom-up edge-matching...
[30.06.2011 15:22:50,100] [main] INFO  playground.droeder.data.GraphMatching  - edge matching finished...
[30.06.2011 15:22:50,100] [main] INFO  playground.droeder.data.GraphMatching  - bottom-up-matching finished...
[30.06.2011 15:22:50,116] [main] INFO  playground.droeder.data.GraphMatching  - starting top-down-Matching...
[30.06.2011 15:22:50,116] [main] INFO  playground.droeder.data.GraphMatching  - starting top-down edge matching...
[30.06.2011 15:22:50,131] [main] INFO  playground.droeder.data.GraphMatching  - processed 1 of 71 of unmatched Edges. New matched: 0
[30.06.2011 15:22:50,147] [main] INFO  playground.droeder.data.GraphMatching  - processed 2 of 71 of unmatched Edges. New matched: 0
[30.06.2011 15:22:50,166] [main] INFO  playground.droeder.data.GraphMatching  - processed 4 of 71 of unmatched Edges. New matched: 0
[30.06.2011 15:22:50,278] [main] INFO  playground.droeder.data.GraphMatching  - processed 8 of 71 of unmatched Edges. New matched: 1
[30.06.2011 15:22:50,683] [main] INFO  playground.droeder.data.GraphMatching  - processed 16 of 71 of unmatched Edges. New matched: 2
[30.06.2011 15:22:51,479] [main] INFO  playground.droeder.data.GraphMatching  - processed 32 of 71 of unmatched Edges. New matched: 4
[30.06.2011 15:22:52,770] [main] INFO  playground.droeder.data.GraphMatching  - processed 64 of 71 of unmatched Edges. New matched: 8
[30.06.2011 15:22:52,989] [main] INFO  playground.droeder.data.GraphMatching  - 9 edges are new matched after top-down edge matching!
[30.06.2011 15:22:52,989] [main] INFO  playground.droeder.data.GraphMatching  - 429 edges are matched after top-down edge-matching!
[30.06.2011 15:22:52,989] [main] INFO  playground.droeder.data.GraphMatching  - finished top-down edge-matching...
[30.06.2011 15:22:52,989] [main] INFO  playground.droeder.data.GraphMatching  - top-down-matching finished...
[30.06.2011 15:23:06,437] [main] INFO  playground.droeder.gis.DaShapeWriter  - D:/VSP/output/geoAlgorithm/matched_Nodes.shp written!
[30.06.2011 15:23:07,077] [main] INFO  playground.droeder.gis.DaShapeWriter  - D:/VSP/output/geoAlgorithm/unmatched_Nodes.shp written!
[30.06.2011 15:23:07,811] [main] INFO  playground.droeder.gis.DaShapeWriter  - D:/VSP/output/geoAlgorithm/refGraphSegments.shp written!
[30.06.2011 15:23:09,403] [main] INFO  playground.droeder.gis.DaShapeWriter  - D:/VSP/output/geoAlgorithm/matchingGraphSegments.shp written!
[30.06.2011 15:23:10,808] [main] INFO  playground.droeder.gis.DaShapeWriter  - D:/VSP/output/geoAlgorithm/matchedSegments.shp written!
[30.06.2011 15:52:17,180] [main] INFO  playground.andreas.osmBB.OsmTransitMain  - Start...
[30.06.2011 15:52:20,911] [main] INFO  playground.andreas.osmBB.OsmTransitMain  - Reading D:/VSP/output/osm/berlin.osm
[30.06.2011 15:52:24,032] [main] INFO  playground.mzilske.osm.TransitNetworkSink  - 50000 nodes processed so far
[30.06.2011 15:52:25,624] [main] INFO  playground.mzilske.osm.TransitNetworkSink  - 100000 nodes processed so far
[30.06.2011 15:52:26,561] [main] INFO  playground.mzilske.osm.TransitNetworkSink  - 150000 nodes processed so far
[30.06.2011 15:52:27,450] [main] INFO  playground.mzilske.osm.TransitNetworkSink  - 200000 nodes processed so far
[30.06.2011 15:52:28,917] [main] INFO  playground.mzilske.osm.TransitNetworkSink  - 250000 nodes processed so far
[30.06.2011 15:52:29,901] [main] INFO  playground.mzilske.osm.TransitNetworkSink  - 300000 nodes processed so far
[30.06.2011 15:52:31,617] [main] INFO  playground.mzilske.osm.TransitNetworkSink  - 350000 nodes processed so far
[30.06.2011 15:52:32,632] [main] INFO  playground.mzilske.osm.TransitNetworkSink  - 400000 nodes processed so far
[30.06.2011 15:52:33,694] [main] INFO  playground.mzilske.osm.TransitNetworkSink  - 450000 nodes processed so far
[30.06.2011 15:52:35,692] [main] INFO  playground.mzilske.osm.TransitNetworkSink  - 500000 nodes processed so far
[30.06.2011 15:52:36,800] [main] INFO  playground.mzilske.osm.TransitNetworkSink  - 550000 nodes processed so far
[30.06.2011 15:52:37,784] [main] INFO  playground.mzilske.osm.TransitNetworkSink  - 600000 nodes processed so far
[30.06.2011 15:52:38,985] [main] INFO  playground.mzilske.osm.TransitNetworkSink  - 650000 nodes processed so far
[30.06.2011 15:52:40,094] [main] INFO  playground.mzilske.osm.TransitNetworkSink  - 700000 nodes processed so far
[30.06.2011 15:52:42,903] [main] INFO  playground.mzilske.osm.TransitNetworkSink  - 750000 nodes processed so far
[30.06.2011 15:52:43,746] [main] INFO  playground.mzilske.osm.TransitNetworkSink  - 800000 nodes processed so far
[30.06.2011 15:52:44,526] [main] INFO  playground.mzilske.osm.TransitNetworkSink  - 850000 nodes processed so far
[30.06.2011 15:52:45,417] [main] INFO  playground.mzilske.osm.TransitNetworkSink  - 900000 nodes processed so far
[30.06.2011 15:52:46,384] [main] INFO  playground.mzilske.osm.TransitNetworkSink  - 950000 nodes processed so far
[30.06.2011 15:52:47,414] [main] INFO  playground.mzilske.osm.TransitNetworkSink  - 1000000 nodes processed so far
[30.06.2011 15:52:49,880] [main] INFO  playground.mzilske.osm.TransitNetworkSink  - 1050000 nodes processed so far
[30.06.2011 15:53:00,240] [main] INFO  playground.mzilske.osm.TransitNetworkSink  - 1100000 nodes processed so far
[30.06.2011 15:53:05,701] [main] INFO  playground.mzilske.osm.TransitNetworkSink  - 1150000 nodes processed so far
[30.06.2011 15:53:09,368] [main] INFO  playground.mzilske.osm.TransitNetworkSink  - 1200000 nodes processed so far
[30.06.2011 15:53:15,250] [main] WARN  playground.mzilske.osm.NetworkSink  - Could not parse freespeed tag:For input string: "5 mph". Ignoring it.
[30.06.2011 15:53:15,250] [main] WARN  playground.mzilske.osm.NetworkSink  - Could not parse freespeed tag:For input string: "5 mph". Ignoring it.
[30.06.2011 15:53:21,974] [main] WARN  playground.mzilske.osm.NetworkSink  - Could not parse freespeed tag:For input string: "walk". Ignoring it.
[30.06.2011 15:53:21,974] [main] WARN  playground.mzilske.osm.NetworkSink  - Could not parse freespeed tag:For input string: "walk". Ignoring it.
[30.06.2011 15:53:21,974] [main] WARN  playground.mzilske.osm.NetworkSink  - Could not parse freespeed tag:For input string: "walk". Ignoring it.
[30.06.2011 15:53:21,974] [main] WARN  playground.mzilske.osm.NetworkSink  - Could not parse freespeed tag:For input string: "walk". Ignoring it.
[30.06.2011 15:53:21,974] [main] WARN  playground.mzilske.osm.NetworkSink  - Could not parse freespeed tag:For input string: "walk". Ignoring it.
[30.06.2011 15:53:21,974] [main] WARN  playground.mzilske.osm.NetworkSink  - Could not parse freespeed tag:For input string: "walk". Ignoring it.
[30.06.2011 15:53:21,990] [main] WARN  playground.mzilske.osm.NetworkSink  - Could not parse freespeed tag:For input string: "walk". Ignoring it.
[30.06.2011 15:53:21,990] [main] WARN  playground.mzilske.osm.NetworkSink  - Could not parse freespeed tag:For input string: "walk". Ignoring it.
[30.06.2011 15:53:21,990] [main] WARN  playground.mzilske.osm.NetworkSink  - Could not parse freespeed tag:For input string: "walk". Ignoring it.
[30.06.2011 15:53:21,990] [main] WARN  playground.mzilske.osm.NetworkSink  - Could not parse freespeed tag:For input string: "walk". Ignoring it.
[30.06.2011 15:53:21,990] [main] WARN  playground.mzilske.osm.NetworkSink  - Could not parse freespeed tag:For input string: "walk". Ignoring it.
[30.06.2011 15:53:36,608] [main] WARN  playground.mzilske.osm.NetworkSink  - Could not parse lanes tag:For input string: "3;4". Ignoring it.
[30.06.2011 15:53:36,608] [main] WARN  playground.mzilske.osm.NetworkSink  - Could not parse lanes tag:For input string: "3;4". Ignoring it.
[30.06.2011 15:53:36,608] [main] WARN  playground.mzilske.osm.NetworkSink  - Could not parse lanes tag:For input string: "3;4". Ignoring it.
[30.06.2011 15:53:38,169] [main] WARN  playground.mzilske.osm.NetworkSink  - Could not parse lanes tag:For input string: "4; 3; 4". Ignoring it.
[30.06.2011 15:53:38,169] [main] WARN  playground.mzilske.osm.NetworkSink  - Could not parse lanes tag:For input string: "4; 3; 4". Ignoring it.
[30.06.2011 15:53:38,169] [main] WARN  playground.mzilske.osm.NetworkSink  - Could not parse lanes tag:For input string: "4; 3; 4". Ignoring it.
[30.06.2011 15:53:38,169] [main] WARN  playground.mzilske.osm.NetworkSink  - Could not parse lanes tag:For input string: "4; 3; 4". Ignoring it.
[30.06.2011 15:53:38,169] [main] WARN  playground.mzilske.osm.NetworkSink  - Could not parse lanes tag:For input string: "4; 3; 4". Ignoring it.
[30.06.2011 15:53:43,833] [main] WARN  playground.mzilske.osm.NetworkSink  - Could not parse freespeed tag:For input string: "walk". Ignoring it.
[30.06.2011 15:53:43,833] [main] WARN  playground.mzilske.osm.NetworkSink  - Could not parse freespeed tag:For input string: "walk". Ignoring it.
[30.06.2011 15:53:43,833] [main] WARN  playground.mzilske.osm.NetworkSink  - Could not parse freespeed tag:For input string: "walk". Ignoring it.
[30.06.2011 15:53:43,833] [main] WARN  playground.mzilske.osm.NetworkSink  - Could not parse freespeed tag:For input string: "walk". Ignoring it.
[30.06.2011 15:53:43,849] [main] WARN  playground.mzilske.osm.NetworkSink  - Could not parse freespeed tag:For input string: "walk". Ignoring it.
[30.06.2011 15:53:43,849] [main] WARN  playground.mzilske.osm.NetworkSink  - Could not parse freespeed tag:For input string: "walk". Ignoring it.
[30.06.2011 15:53:43,849] [main] WARN  playground.mzilske.osm.NetworkSink  - Could not parse freespeed tag:For input string: "walk". Ignoring it.
[30.06.2011 15:53:43,849] [main] WARN  playground.mzilske.osm.NetworkSink  - Could not parse freespeed tag:For input string: "walk". Ignoring it.
[30.06.2011 15:53:43,849] [main] WARN  playground.mzilske.osm.NetworkSink  - Could not parse freespeed tag:For input string: "walk". Ignoring it.
[30.06.2011 15:53:43,849] [main] WARN  playground.mzilske.osm.NetworkSink  - Could not parse freespeed tag:For input string: "walk". Ignoring it.
[30.06.2011 15:53:43,849] [main] WARN  playground.mzilske.osm.NetworkSink  - Could not parse freespeed tag:For input string: "walk". Ignoring it.
[30.06.2011 15:53:43,849] [main] WARN  playground.mzilske.osm.NetworkSink  - Could not parse freespeed tag:For input string: "walk". Ignoring it.
[30.06.2011 15:54:25,112] [main] WARN  playground.mzilske.osm.NetworkSink  - Could not parse lanes tag:For input string: "3; 4; 2". Ignoring it.
[30.06.2011 15:54:35,237] [main] WARN  playground.mzilske.osm.NetworkSink  - Could not parse lanes tag:For input string: "3;4". Ignoring it.
[30.06.2011 15:54:35,331] [main] WARN  playground.mzilske.osm.NetworkSink  - Could not parse lanes tag:For input string: "3;4". Ignoring it.
[30.06.2011 15:54:35,331] [main] WARN  playground.mzilske.osm.NetworkSink  - Could not parse lanes tag:For input string: "3;4". Ignoring it.
[30.06.2011 15:54:35,331] [main] WARN  playground.mzilske.osm.NetworkSink  - Could not parse lanes tag:For input string: "3;4". Ignoring it.
[30.06.2011 15:54:35,331] [main] WARN  playground.mzilske.osm.NetworkSink  - Could not parse lanes tag:For input string: "3;4". Ignoring it.
[30.06.2011 15:54:35,331] [main] WARN  playground.mzilske.osm.NetworkSink  - Could not parse lanes tag:For input string: "3;4". Ignoring it.
[30.06.2011 15:54:35,331] [main] WARN  playground.mzilske.osm.NetworkSink  - Could not parse lanes tag:For input string: "3;4". Ignoring it.
[30.06.2011 15:54:48,684] [main] WARN  playground.mzilske.osm.NetworkSink  - Could not parse lanes tag:For input string: "3;4". Ignoring it.
[30.06.2011 15:54:48,684] [main] WARN  playground.mzilske.osm.NetworkSink  - Could not parse lanes tag:For input string: "3;4". Ignoring it.
[30.06.2011 15:54:48,684] [main] WARN  playground.mzilske.osm.NetworkSink  - Could not parse lanes tag:For input string: "3;4". Ignoring it.
[30.06.2011 15:54:48,684] [main] WARN  playground.mzilske.osm.NetworkSink  - Could not parse lanes tag:For input string: "3;4". Ignoring it.
[30.06.2011 15:56:33,003] [main] WARN  playground.mzilske.osm.NetworkSink  - Could not parse lanes tag:For input string: "3; 4; 2". Ignoring it.
[30.06.2011 15:56:33,018] [main] WARN  playground.mzilske.osm.NetworkSink  - Could not parse lanes tag:For input string: "3; 4; 2". Ignoring it.
[30.06.2011 15:56:33,018] [main] WARN  playground.mzilske.osm.NetworkSink  - Could not parse lanes tag:For input string: "3; 4; 2". Ignoring it.
[30.06.2011 15:56:33,018] [main] WARN  playground.mzilske.osm.NetworkSink  - Could not parse lanes tag:For input string: "3; 4; 2". Ignoring it.
[30.06.2011 15:56:33,018] [main] WARN  playground.mzilske.osm.NetworkSink  - Could not parse lanes tag:For input string: "3; 4; 2". Ignoring it.
[30.06.2011 15:56:33,018] [main] WARN  playground.mzilske.osm.NetworkSink  - Could not parse lanes tag:For input string: "3; 4; 2". Ignoring it.
[30.06.2011 15:56:47,793] [main] WARN  playground.mzilske.osm.NetworkSink  - Could not parse lanes tag:For input string: "3;4". Ignoring it.
[30.06.2011 15:56:47,793] [main] WARN  playground.mzilske.osm.NetworkSink  - Could not parse lanes tag:For input string: "3;4". Ignoring it.
[30.06.2011 15:56:47,793] [main] WARN  playground.mzilske.osm.NetworkSink  - Could not parse lanes tag:For input string: "3;4". Ignoring it.
[30.06.2011 15:56:47,793] [main] WARN  playground.mzilske.osm.NetworkSink  - Could not parse lanes tag:For input string: "3;4". Ignoring it.
[30.06.2011 15:56:53,893] [main] WARN  playground.mzilske.osm.NetworkSink  - Could not parse lanes tag:For input string: "3; 4; 2". Ignoring it.
[30.06.2011 15:56:53,909] [main] WARN  playground.mzilske.osm.NetworkSink  - Could not parse lanes tag:For input string: "3; 4; 2". Ignoring it.
[30.06.2011 15:56:53,909] [main] WARN  playground.mzilske.osm.NetworkSink  - Could not parse lanes tag:For input string: "3; 4; 2". Ignoring it.
[30.06.2011 15:56:53,909] [main] WARN  playground.mzilske.osm.NetworkSink  - Could not parse lanes tag:For input string: "3; 4; 2". Ignoring it.
[30.06.2011 15:56:53,909] [main] WARN  playground.mzilske.osm.NetworkSink  - Could not parse lanes tag:For input string: "3; 4; 2". Ignoring it.
[30.06.2011 15:59:37,039] [main] WARN  playground.mzilske.osm.NetworkSink  - Could not parse lanes tag:For input string: "4; 3; 4". Ignoring it.
[30.06.2011 15:59:37,039] [main] WARN  playground.mzilske.osm.NetworkSink  - Could not parse lanes tag:For input string: "4; 3; 4". Ignoring it.
[30.06.2011 15:59:37,039] [main] WARN  playground.mzilske.osm.NetworkSink  - Could not parse lanes tag:For input string: "4; 3; 4". Ignoring it.
[30.06.2011 15:59:37,039] [main] WARN  playground.mzilske.osm.NetworkSink  - Could not parse lanes tag:For input string: "4; 3; 4". Ignoring it.
[30.06.2011 15:59:37,039] [main] WARN  playground.mzilske.osm.NetworkSink  - Could not parse lanes tag:For input string: "4; 3; 4". Ignoring it.
[30.06.2011 15:59:37,039] [main] WARN  playground.mzilske.osm.NetworkSink  - Could not parse lanes tag:For input string: "4; 3; 4". Ignoring it.
[30.06.2011 17:06:12,060] [main] INFO  playground.andreas.osmBB.OsmTransitMain  - Start...
[30.06.2011 17:06:17,875] [main] INFO  playground.andreas.osmBB.OsmTransitMain  - Reading D:/VSP/output/osm/berlin.osm
[30.06.2011 17:06:21,074] [main] INFO  playground.mzilske.osm.TransitNetworkSink  - 50000 nodes processed so far
[30.06.2011 17:06:22,682] [main] INFO  playground.mzilske.osm.TransitNetworkSink  - 100000 nodes processed so far
[30.06.2011 17:06:23,634] [main] INFO  playground.mzilske.osm.TransitNetworkSink  - 150000 nodes processed so far
[30.06.2011 17:06:24,617] [main] INFO  playground.mzilske.osm.TransitNetworkSink  - 200000 nodes processed so far
[30.06.2011 17:06:26,163] [main] INFO  playground.mzilske.osm.TransitNetworkSink  - 250000 nodes processed so far
[30.06.2011 17:06:28,281] [main] INFO  playground.mzilske.osm.TransitNetworkSink  - 300000 nodes processed so far
[30.06.2011 17:06:29,264] [main] INFO  playground.mzilske.osm.TransitNetworkSink  - 350000 nodes processed so far
[30.06.2011 17:06:30,247] [main] INFO  playground.mzilske.osm.TransitNetworkSink  - 400000 nodes processed so far
[30.06.2011 17:06:31,247] [main] INFO  playground.mzilske.osm.TransitNetworkSink  - 450000 nodes processed so far
[30.06.2011 17:06:33,915] [main] INFO  playground.mzilske.osm.TransitNetworkSink  - 500000 nodes processed so far
[30.06.2011 17:06:34,977] [main] INFO  playground.mzilske.osm.TransitNetworkSink  - 550000 nodes processed so far
[30.06.2011 17:06:35,978] [main] INFO  playground.mzilske.osm.TransitNetworkSink  - 600000 nodes processed so far
[30.06.2011 17:06:38,131] [main] INFO  playground.mzilske.osm.TransitNetworkSink  - 650000 nodes processed so far
[30.06.2011 17:06:39,396] [main] INFO  playground.mzilske.osm.TransitNetworkSink  - 700000 nodes processed so far
[30.06.2011 17:06:42,298] [main] INFO  playground.mzilske.osm.TransitNetworkSink  - 750000 nodes processed so far
[30.06.2011 17:06:43,220] [main] INFO  playground.mzilske.osm.TransitNetworkSink  - 800000 nodes processed so far
[30.06.2011 17:06:44,047] [main] INFO  playground.mzilske.osm.TransitNetworkSink  - 850000 nodes processed so far
[30.06.2011 17:06:44,984] [main] INFO  playground.mzilske.osm.TransitNetworkSink  - 900000 nodes processed so far
[30.06.2011 17:06:46,013] [main] INFO  playground.mzilske.osm.TransitNetworkSink  - 950000 nodes processed so far
[30.06.2011 17:06:47,106] [main] INFO  playground.mzilske.osm.TransitNetworkSink  - 1000000 nodes processed so far
[30.06.2011 17:06:48,480] [main] INFO  playground.mzilske.osm.TransitNetworkSink  - 1050000 nodes processed so far
[30.06.2011 17:06:58,161] [main] INFO  playground.mzilske.osm.TransitNetworkSink  - 1100000 nodes processed so far
[30.06.2011 17:07:03,949] [main] INFO  playground.mzilske.osm.TransitNetworkSink  - 1150000 nodes processed so far
[30.06.2011 17:07:08,365] [main] INFO  playground.mzilske.osm.TransitNetworkSink  - 1200000 nodes processed so far
[30.06.2011 17:07:14,809] [main] WARN  playground.mzilske.osm.NetworkSink  - Could not parse freespeed tag:For input string: "5 mph". Ignoring it.
[30.06.2011 17:07:14,809] [main] WARN  playground.mzilske.osm.NetworkSink  - Could not parse freespeed tag:For input string: "5 mph". Ignoring it.
[30.06.2011 17:07:22,740] [main] WARN  playground.mzilske.osm.NetworkSink  - Could not parse freespeed tag:For input string: "walk". Ignoring it.
[30.06.2011 17:07:22,740] [main] WARN  playground.mzilske.osm.NetworkSink  - Could not parse freespeed tag:For input string: "walk". Ignoring it.
[30.06.2011 17:07:22,740] [main] WARN  playground.mzilske.osm.NetworkSink  - Could not parse freespeed tag:For input string: "walk". Ignoring it.
[30.06.2011 17:07:22,740] [main] WARN  playground.mzilske.osm.NetworkSink  - Could not parse freespeed tag:For input string: "walk". Ignoring it.
[30.06.2011 17:07:22,756] [main] WARN  playground.mzilske.osm.NetworkSink  - Could not parse freespeed tag:For input string: "walk". Ignoring it.
[30.06.2011 17:07:22,756] [main] WARN  playground.mzilske.osm.NetworkSink  - Could not parse freespeed tag:For input string: "walk". Ignoring it.
[30.06.2011 17:07:22,756] [main] WARN  playground.mzilske.osm.NetworkSink  - Could not parse freespeed tag:For input string: "walk". Ignoring it.
[30.06.2011 17:07:22,756] [main] WARN  playground.mzilske.osm.NetworkSink  - Could not parse freespeed tag:For input string: "walk". Ignoring it.
[30.06.2011 17:07:22,756] [main] WARN  playground.mzilske.osm.NetworkSink  - Could not parse freespeed tag:For input string: "walk". Ignoring it.
[30.06.2011 17:07:22,756] [main] WARN  playground.mzilske.osm.NetworkSink  - Could not parse freespeed tag:For input string: "walk". Ignoring it.
[30.06.2011 17:07:22,756] [main] WARN  playground.mzilske.osm.NetworkSink  - Could not parse freespeed tag:For input string: "walk". Ignoring it.
[30.06.2011 17:07:43,365] [main] WARN  playground.mzilske.osm.NetworkSink  - Could not parse lanes tag:For input string: "3;4". Ignoring it.
[30.06.2011 17:07:43,489] [main] WARN  playground.mzilske.osm.NetworkSink  - Could not parse lanes tag:For input string: "3;4". Ignoring it.
[30.06.2011 17:07:43,489] [main] WARN  playground.mzilske.osm.NetworkSink  - Could not parse lanes tag:For input string: "3;4". Ignoring it.
[30.06.2011 17:07:48,248] [main] WARN  playground.mzilske.osm.NetworkSink  - Could not parse lanes tag:For input string: "4; 3; 4". Ignoring it.
[30.06.2011 17:07:48,248] [main] WARN  playground.mzilske.osm.NetworkSink  - Could not parse lanes tag:For input string: "4; 3; 4". Ignoring it.
[30.06.2011 17:07:48,248] [main] WARN  playground.mzilske.osm.NetworkSink  - Could not parse lanes tag:For input string: "4; 3; 4". Ignoring it.
[30.06.2011 17:07:48,248] [main] WARN  playground.mzilske.osm.NetworkSink  - Could not parse lanes tag:For input string: "4; 3; 4". Ignoring it.
[30.06.2011 17:07:48,248] [main] WARN  playground.mzilske.osm.NetworkSink  - Could not parse lanes tag:For input string: "4; 3; 4". Ignoring it.
[30.06.2011 17:08:47,233] [main] WARN  playground.mzilske.osm.NetworkSink  - Could not parse freespeed tag:For input string: "walk". Ignoring it.
[30.06.2011 17:08:47,233] [main] WARN  playground.mzilske.osm.NetworkSink  - Could not parse freespeed tag:For input string: "walk". Ignoring it.
[30.06.2011 17:08:47,233] [main] WARN  playground.mzilske.osm.NetworkSink  - Could not parse freespeed tag:For input string: "walk". Ignoring it.
[30.06.2011 17:08:47,233] [main] WARN  playground.mzilske.osm.NetworkSink  - Could not parse freespeed tag:For input string: "walk". Ignoring it.
[30.06.2011 17:08:47,233] [main] WARN  playground.mzilske.osm.NetworkSink  - Could not parse freespeed tag:For input string: "walk". Ignoring it.
[30.06.2011 17:08:47,233] [main] WARN  playground.mzilske.osm.NetworkSink  - Could not parse freespeed tag:For input string: "walk". Ignoring it.
[30.06.2011 17:08:47,249] [main] WARN  playground.mzilske.osm.NetworkSink  - Could not parse freespeed tag:For input string: "walk". Ignoring it.
[30.06.2011 17:08:47,249] [main] WARN  playground.mzilske.osm.NetworkSink  - Could not parse freespeed tag:For input string: "walk". Ignoring it.
[30.06.2011 17:08:47,249] [main] WARN  playground.mzilske.osm.NetworkSink  - Could not parse freespeed tag:For input string: "walk". Ignoring it.
[30.06.2011 17:08:47,249] [main] WARN  playground.mzilske.osm.NetworkSink  - Could not parse freespeed tag:For input string: "walk". Ignoring it.
[30.06.2011 17:08:47,249] [main] WARN  playground.mzilske.osm.NetworkSink  - Could not parse freespeed tag:For input string: "walk". Ignoring it.
[30.06.2011 17:08:47,249] [main] WARN  playground.mzilske.osm.NetworkSink  - Could not parse freespeed tag:For input string: "walk". Ignoring it.
[30.06.2011 17:09:30,165] [main] WARN  playground.mzilske.osm.NetworkSink  - Could not parse lanes tag:For input string: "3; 4; 2". Ignoring it.
[30.06.2011 17:23:18,842] [main] INFO  org.matsim.core.utils.io.MatsimXmlParser  - Trying to load http://www.matsim.org/files/dtd/transitSchedule_v1.dtd. In some cases (e.g. network interface up but no connection), this may take a bit.
[30.06.2011 17:23:21,542] [main] INFO  org.matsim.core.utils.io.MatsimXmlParser  - Trying to load http://www.matsim.org/files/dtd/transitSchedule_v1.dtd. In some cases (e.g. network interface up but no connection), this may take a bit.
[30.06.2011 17:23:23,149] [main] INFO  playground.droeder.data.GraphMatching  - starting bottom-up-Matching...
[30.06.2011 17:23:23,149] [main] INFO  playground.droeder.data.GraphMatching  - start matching Nodes...
[30.06.2011 17:23:23,353] [main] INFO  playground.droeder.data.GraphMatching  - 27 nodes are unmatched!
[30.06.2011 17:23:23,353] [main] INFO  playground.droeder.data.GraphMatching  - 288 of 315 nodes have one or more match after bottom-up node-matching!
[30.06.2011 17:23:23,353] [main] INFO  playground.droeder.data.GraphMatching  - node-matching finished... 
[30.06.2011 17:23:23,353] [main] INFO  playground.droeder.data.GraphMatching  - compute candidate edges from mapped nodes...
[30.06.2011 17:23:23,353] [main] INFO  playground.droeder.data.GraphMatching  - 420 of 491 edges from the reference-Graph are preMapped
[30.06.2011 17:23:23,353] [main] INFO  playground.droeder.data.GraphMatching  - start bottom-up edge-matching...
[30.06.2011 17:23:27,784] [main] INFO  playground.droeder.data.GraphMatching  - 420 of 491 edges have one or more match after bottom-up edge-matching...
[30.06.2011 17:23:27,784] [main] INFO  playground.droeder.data.GraphMatching  - edge matching finished...
[30.06.2011 17:23:27,784] [main] INFO  playground.droeder.data.GraphMatching  - bottom-up-matching finished...
[30.06.2011 17:23:27,784] [main] INFO  playground.droeder.data.GraphMatching  - starting top-down-Matching...
[30.06.2011 17:23:27,784] [main] INFO  playground.droeder.data.GraphMatching  - starting top-down edge matching...
[30.06.2011 17:23:27,799] [main] INFO  playground.droeder.data.GraphMatching  - processed 1 of 71 of unmatched Edges. New matched: 0
[30.06.2011 17:23:27,815] [main] INFO  playground.droeder.data.GraphMatching  - processed 2 of 71 of unmatched Edges. New matched: 0
[30.06.2011 17:23:27,831] [main] INFO  playground.droeder.data.GraphMatching  - processed 4 of 71 of unmatched Edges. New matched: 0
[30.06.2011 17:23:27,941] [main] INFO  playground.droeder.data.GraphMatching  - processed 8 of 71 of unmatched Edges. New matched: 1
[30.06.2011 17:23:28,268] [main] INFO  playground.droeder.data.GraphMatching  - processed 16 of 71 of unmatched Edges. New matched: 2
[30.06.2011 17:23:28,830] [main] INFO  playground.droeder.data.GraphMatching  - processed 32 of 71 of unmatched Edges. New matched: 4
[30.06.2011 17:23:29,923] [main] INFO  playground.droeder.data.GraphMatching  - processed 64 of 71 of unmatched Edges. New matched: 8
[30.06.2011 17:23:30,095] [main] INFO  playground.droeder.data.GraphMatching  - 9 edges are new matched after top-down edge matching!
[30.06.2011 17:23:30,095] [main] INFO  playground.droeder.data.GraphMatching  - 429 edges are matched after top-down edge-matching!
[30.06.2011 17:23:30,095] [main] INFO  playground.droeder.data.GraphMatching  - finished top-down edge-matching...
[30.06.2011 17:23:30,095] [main] INFO  playground.droeder.data.GraphMatching  - top-down-matching finished...
[30.06.2011 17:23:32,842] [main] INFO  playground.droeder.gis.DaShapeWriter  - D:/VSP/output/geoAlgorithm/matched_Nodes.shp written!
[30.06.2011 17:23:32,999] [main] INFO  playground.droeder.gis.DaShapeWriter  - D:/VSP/output/geoAlgorithm/unmatched_Nodes.shp written!
[30.06.2011 17:23:33,358] [main] INFO  playground.droeder.gis.DaShapeWriter  - D:/VSP/output/geoAlgorithm/refGraphSegments.shp written!
[30.06.2011 17:23:34,278] [main] INFO  playground.droeder.gis.DaShapeWriter  - D:/VSP/output/geoAlgorithm/matchingGraphSegments.shp written!
[30.06.2011 17:23:34,716] [main] INFO  playground.droeder.gis.DaShapeWriter  - D:/VSP/output/geoAlgorithm/matchedSegments.shp written!
[30.06.2011 17:26:17,766] [main] INFO  org.matsim.core.utils.io.MatsimXmlParser  - Trying to load http://www.matsim.org/files/dtd/transitSchedule_v1.dtd. In some cases (e.g. network interface up but no connection), this may take a bit.
[30.06.2011 17:26:19,826] [main] INFO  org.matsim.core.utils.io.MatsimXmlParser  - Trying to load http://www.matsim.org/files/dtd/transitSchedule_v1.dtd. In some cases (e.g. network interface up but no connection), this may take a bit.
[30.06.2011 17:26:21,458] [main] INFO  playground.droeder.data.GraphMatching  - starting bottom-up-Matching...
[30.06.2011 17:26:21,458] [main] INFO  playground.droeder.data.GraphMatching  - start matching Nodes...
[30.06.2011 17:26:21,567] [main] INFO  playground.droeder.data.GraphMatching  - 27 nodes are unmatched!
[30.06.2011 17:26:21,567] [main] INFO  playground.droeder.data.GraphMatching  - 288 of 315 nodes have one or more match after bottom-up node-matching!
[30.06.2011 17:26:21,567] [main] INFO  playground.droeder.data.GraphMatching  - node-matching finished... 
[30.06.2011 17:26:21,567] [main] INFO  playground.droeder.data.GraphMatching  - compute candidate edges from mapped nodes...
[30.06.2011 17:26:21,583] [main] INFO  playground.droeder.data.GraphMatching  - 419 of 491 edges from the reference-Graph are preMapped
[30.06.2011 17:26:21,583] [main] INFO  playground.droeder.data.GraphMatching  - start bottom-up edge-matching...
[30.06.2011 17:26:25,896] [main] INFO  playground.droeder.data.GraphMatching  - 419 of 491 edges have one or more match after bottom-up edge-matching...
[30.06.2011 17:26:25,911] [main] INFO  playground.droeder.data.GraphMatching  - edge matching finished...
[30.06.2011 17:26:25,911] [main] INFO  playground.droeder.data.GraphMatching  - bottom-up-matching finished...
[30.06.2011 17:26:25,911] [main] INFO  playground.droeder.data.GraphMatching  - starting top-down-Matching...
[30.06.2011 17:26:25,911] [main] INFO  playground.droeder.data.GraphMatching  - starting top-down edge matching...
[30.06.2011 17:26:25,911] [main] INFO  playground.droeder.data.GraphMatching  - processed 1 of 72 of unmatched Edges. New matched: 0
[30.06.2011 17:26:25,927] [main] INFO  playground.droeder.data.GraphMatching  - processed 2 of 72 of unmatched Edges. New matched: 0
[30.06.2011 17:26:25,927] [main] INFO  playground.droeder.data.GraphMatching  - processed 4 of 72 of unmatched Edges. New matched: 0
[30.06.2011 17:26:26,038] [main] INFO  playground.droeder.data.GraphMatching  - processed 8 of 72 of unmatched Edges. New matched: 1
[30.06.2011 17:26:26,319] [main] INFO  playground.droeder.data.GraphMatching  - processed 16 of 72 of unmatched Edges. New matched: 1
[30.06.2011 17:26:26,724] [main] INFO  playground.droeder.data.GraphMatching  - processed 32 of 72 of unmatched Edges. New matched: 1
[30.06.2011 17:26:27,692] [main] INFO  playground.droeder.data.GraphMatching  - processed 64 of 72 of unmatched Edges. New matched: 1
[30.06.2011 17:26:27,880] [main] INFO  playground.droeder.data.GraphMatching  - 1 edges are new matched after top-down edge matching!
[30.06.2011 17:26:27,880] [main] INFO  playground.droeder.data.GraphMatching  - 420 edges are matched after top-down edge-matching!
[30.06.2011 17:26:27,880] [main] INFO  playground.droeder.data.GraphMatching  - finished top-down edge-matching...
[30.06.2011 17:26:27,880] [main] INFO  playground.droeder.data.GraphMatching  - top-down-matching finished...
[30.06.2011 17:26:29,176] [main] INFO  playground.droeder.gis.DaShapeWriter  - D:/VSP/output/geoAlgorithm/matched_Nodes.shp written!
[30.06.2011 17:26:29,208] [main] INFO  playground.droeder.gis.DaShapeWriter  - D:/VSP/output/geoAlgorithm/unmatched_Nodes.shp written!
[30.06.2011 17:26:29,395] [main] INFO  playground.droeder.gis.DaShapeWriter  - D:/VSP/output/geoAlgorithm/refGraphSegments.shp written!
[30.06.2011 17:26:30,175] [main] INFO  playground.droeder.gis.DaShapeWriter  - D:/VSP/output/geoAlgorithm/matchingGraphSegments.shp written!
[30.06.2011 17:26:30,804] [main] INFO  playground.droeder.gis.DaShapeWriter  - D:/VSP/output/geoAlgorithm/matchedSegments.shp written!
[30.06.2011 17:26:39,073] [main] INFO  org.matsim.core.utils.io.MatsimXmlParser  - Trying to load http://www.matsim.org/files/dtd/transitSchedule_v1.dtd. In some cases (e.g. network interface up but no connection), this may take a bit.
[30.06.2011 17:26:41,617] [main] INFO  org.matsim.core.utils.io.MatsimXmlParser  - Trying to load http://www.matsim.org/files/dtd/transitSchedule_v1.dtd. In some cases (e.g. network interface up but no connection), this may take a bit.
[30.06.2011 17:26:43,864] [main] INFO  playground.droeder.data.GraphMatching  - starting bottom-up-Matching...
[30.06.2011 17:26:43,864] [main] INFO  playground.droeder.data.GraphMatching  - start matching Nodes...
[30.06.2011 17:26:43,977] [main] INFO  playground.droeder.data.GraphMatching  - 36 nodes are unmatched!
[30.06.2011 17:26:43,977] [main] INFO  playground.droeder.data.GraphMatching  - 279 of 315 nodes have one or more match after bottom-up node-matching!
[30.06.2011 17:26:43,977] [main] INFO  playground.droeder.data.GraphMatching  - node-matching finished... 
[30.06.2011 17:26:43,977] [main] INFO  playground.droeder.data.GraphMatching  - compute candidate edges from mapped nodes...
[30.06.2011 17:26:43,993] [main] INFO  playground.droeder.data.GraphMatching  - 399 of 491 edges from the reference-Graph are preMapped
[30.06.2011 17:26:43,993] [main] INFO  playground.droeder.data.GraphMatching  - start bottom-up edge-matching...
[30.06.2011 17:26:48,189] [main] INFO  playground.droeder.data.GraphMatching  - 399 of 491 edges have one or more match after bottom-up edge-matching...
[30.06.2011 17:26:48,189] [main] INFO  playground.droeder.data.GraphMatching  - edge matching finished...
[30.06.2011 17:26:48,189] [main] INFO  playground.droeder.data.GraphMatching  - bottom-up-matching finished...
[30.06.2011 17:26:48,189] [main] INFO  playground.droeder.data.GraphMatching  - starting top-down-Matching...
[30.06.2011 17:26:48,189] [main] INFO  playground.droeder.data.GraphMatching  - starting top-down edge matching...
[30.06.2011 17:26:48,205] [main] INFO  playground.droeder.data.GraphMatching  - processed 1 of 92 of unmatched Edges. New matched: 0
[30.06.2011 17:26:48,205] [main] INFO  playground.droeder.data.GraphMatching  - processed 2 of 92 of unmatched Edges. New matched: 0
[30.06.2011 17:26:48,222] [main] INFO  playground.droeder.data.GraphMatching  - processed 4 of 92 of unmatched Edges. New matched: 0
[30.06.2011 17:26:48,331] [main] INFO  playground.droeder.data.GraphMatching  - processed 8 of 92 of unmatched Edges. New matched: 1
[30.06.2011 17:26:48,456] [main] INFO  playground.droeder.data.GraphMatching  - processed 16 of 92 of unmatched Edges. New matched: 1
[30.06.2011 17:26:48,814] [main] INFO  playground.droeder.data.GraphMatching  - processed 32 of 92 of unmatched Edges. New matched: 1
[30.06.2011 17:26:49,454] [main] INFO  playground.droeder.data.GraphMatching  - processed 64 of 92 of unmatched Edges. New matched: 1
[30.06.2011 17:26:50,173] [main] INFO  playground.droeder.data.GraphMatching  - 1 edges are new matched after top-down edge matching!
[30.06.2011 17:26:50,173] [main] INFO  playground.droeder.data.GraphMatching  - 400 edges are matched after top-down edge-matching!
[30.06.2011 17:26:50,173] [main] INFO  playground.droeder.data.GraphMatching  - finished top-down edge-matching...
[30.06.2011 17:26:50,173] [main] INFO  playground.droeder.data.GraphMatching  - top-down-matching finished...
[30.06.2011 17:26:51,552] [main] INFO  playground.droeder.gis.DaShapeWriter  - D:/VSP/output/geoAlgorithm/matched_Nodes.shp written!
[30.06.2011 17:26:51,600] [main] INFO  playground.droeder.gis.DaShapeWriter  - D:/VSP/output/geoAlgorithm/unmatched_Nodes.shp written!
[30.06.2011 17:26:51,865] [main] INFO  playground.droeder.gis.DaShapeWriter  - D:/VSP/output/geoAlgorithm/refGraphSegments.shp written!
[30.06.2011 17:26:52,536] [main] INFO  playground.droeder.gis.DaShapeWriter  - D:/VSP/output/geoAlgorithm/matchingGraphSegments.shp written!
[30.06.2011 17:26:52,911] [main] INFO  playground.droeder.gis.DaShapeWriter  - D:/VSP/output/geoAlgorithm/matchedSegments.shp written!
[30.06.2011 17:32:36,617] [main] INFO  org.matsim.core.utils.io.MatsimXmlParser  - Trying to load http://www.matsim.org/files/dtd/transitSchedule_v1.dtd. In some cases (e.g. network interface up but no connection), this may take a bit.
[30.06.2011 17:32:39,067] [main] INFO  org.matsim.core.utils.io.MatsimXmlParser  - Trying to load http://www.matsim.org/files/dtd/transitSchedule_v1.dtd. In some cases (e.g. network interface up but no connection), this may take a bit.
[30.06.2011 17:32:40,802] [main] INFO  playground.droeder.data.GraphMatching  - starting bottom-up-Matching...
[30.06.2011 17:32:40,802] [main] INFO  playground.droeder.data.GraphMatching  - start matching Nodes...
[30.06.2011 17:32:42,534] [main] INFO  playground.droeder.data.GraphMatching  - 858 nodes are unmatched!
[30.06.2011 17:32:42,534] [main] INFO  playground.droeder.data.GraphMatching  - 3335 of 4193 nodes have one or more match after bottom-up node-matching!
[30.06.2011 17:32:42,534] [main] INFO  playground.droeder.data.GraphMatching  - node-matching finished... 
[30.06.2011 17:32:42,534] [main] INFO  playground.droeder.data.GraphMatching  - compute candidate edges from mapped nodes...
[30.06.2011 17:32:42,785] [main] INFO  playground.droeder.data.GraphMatching  - 11925 of 15439 edges from the reference-Graph are preMapped
[30.06.2011 17:32:42,785] [main] INFO  playground.droeder.data.GraphMatching  - start bottom-up edge-matching...
[30.06.2011 17:32:51,599] [main] INFO  playground.droeder.data.GraphMatching  - 11925 of 15439 edges have one or more match after bottom-up edge-matching...
[30.06.2011 17:32:51,599] [main] INFO  playground.droeder.data.GraphMatching  - edge matching finished...
[30.06.2011 17:32:51,614] [main] INFO  playground.droeder.data.GraphMatching  - bottom-up-matching finished...
[30.06.2011 17:32:51,614] [main] INFO  playground.droeder.data.GraphMatching  - starting top-down-Matching...
[30.06.2011 17:32:51,614] [main] INFO  playground.droeder.data.GraphMatching  - starting top-down edge matching...
[30.06.2011 17:32:51,614] [main] INFO  playground.droeder.data.GraphMatching  - processed 1 of 3514 of unmatched Edges. New matched: 0
[30.06.2011 17:32:51,614] [main] INFO  playground.droeder.data.GraphMatching  - processed 2 of 3514 of unmatched Edges. New matched: 0
[30.06.2011 17:32:51,614] [main] INFO  playground.droeder.data.GraphMatching  - processed 4 of 3514 of unmatched Edges. New matched: 0
[30.06.2011 17:32:51,630] [main] INFO  playground.droeder.data.GraphMatching  - processed 8 of 3514 of unmatched Edges. New matched: 0
[30.06.2011 17:32:51,647] [main] INFO  playground.droeder.data.GraphMatching  - processed 16 of 3514 of unmatched Edges. New matched: 0
[30.06.2011 17:32:51,647] [main] INFO  playground.droeder.data.GraphMatching  - processed 32 of 3514 of unmatched Edges. New matched: 0
[30.06.2011 17:32:51,662] [main] INFO  playground.droeder.data.GraphMatching  - processed 64 of 3514 of unmatched Edges. New matched: 0
[30.06.2011 17:32:51,678] [main] INFO  playground.droeder.data.GraphMatching  - processed 128 of 3514 of unmatched Edges. New matched: 0
[30.06.2011 17:32:51,740] [main] INFO  playground.droeder.data.GraphMatching  - processed 256 of 3514 of unmatched Edges. New matched: 0
[30.06.2011 17:32:51,912] [main] INFO  playground.droeder.data.GraphMatching  - processed 512 of 3514 of unmatched Edges. New matched: 0
[30.06.2011 17:32:52,988] [main] INFO  playground.droeder.data.GraphMatching  - processed 1024 of 3514 of unmatched Edges. New matched: 0
[30.06.2011 17:32:53,722] [main] INFO  playground.droeder.data.GraphMatching  - processed 2048 of 3514 of unmatched Edges. New matched: 1
[30.06.2011 17:32:56,718] [main] INFO  playground.droeder.data.GraphMatching  - 4 edges are new matched after top-down edge matching!
[30.06.2011 17:32:56,718] [main] INFO  playground.droeder.data.GraphMatching  - 11929 edges are matched after top-down edge-matching!
[30.06.2011 17:32:56,718] [main] INFO  playground.droeder.data.GraphMatching  - finished top-down edge-matching...
[30.06.2011 17:32:56,718] [main] INFO  playground.droeder.data.GraphMatching  - top-down-matching finished...
[30.06.2011 17:32:58,997] [main] INFO  playground.droeder.gis.DaShapeWriter  - D:/VSP/output/geoAlgorithm/matched_Nodes.shp written!
[30.06.2011 17:32:59,092] [main] INFO  playground.droeder.gis.DaShapeWriter  - D:/VSP/output/geoAlgorithm/unmatched_Nodes.shp written!
[30.06.2011 17:33:00,465] [main] INFO  playground.droeder.gis.DaShapeWriter  - D:/VSP/output/geoAlgorithm/refGraphSegments.shp written!
[30.06.2011 17:33:05,083] [main] INFO  playground.droeder.gis.DaShapeWriter  - D:/VSP/output/geoAlgorithm/matchingGraphSegments.shp written!
[30.06.2011 17:33:06,239] [main] INFO  playground.droeder.gis.DaShapeWriter  - D:/VSP/output/geoAlgorithm/matchedSegments.shp written!
[30.06.2011 17:34:28,550] [main] INFO  org.matsim.core.utils.io.MatsimXmlParser  - Trying to load http://www.matsim.org/files/dtd/transitSchedule_v1.dtd. In some cases (e.g. network interface up but no connection), this may take a bit.
[30.06.2011 17:34:31,390] [main] INFO  org.matsim.core.utils.io.MatsimXmlParser  - Trying to load http://www.matsim.org/files/dtd/transitSchedule_v1.dtd. In some cases (e.g. network interface up but no connection), this may take a bit.
[30.06.2011 17:34:33,496] [main] INFO  playground.droeder.data.GraphMatching  - starting bottom-up-Matching...
[30.06.2011 17:34:33,496] [main] INFO  playground.droeder.data.GraphMatching  - start matching Nodes...
[30.06.2011 17:34:35,119] [main] INFO  playground.droeder.data.GraphMatching  - 989 nodes are unmatched!
[30.06.2011 17:34:35,119] [main] INFO  playground.droeder.data.GraphMatching  - 3204 of 4193 nodes have one or more match after bottom-up node-matching!
[30.06.2011 17:34:35,119] [main] INFO  playground.droeder.data.GraphMatching  - node-matching finished... 
[30.06.2011 17:34:35,119] [main] INFO  playground.droeder.data.GraphMatching  - compute candidate edges from mapped nodes...
[30.06.2011 17:34:35,338] [main] INFO  playground.droeder.data.GraphMatching  - 11659 of 12033 edges from the reference-Graph are preMapped
[30.06.2011 17:34:35,338] [main] INFO  playground.droeder.data.GraphMatching  - start bottom-up edge-matching...
[30.06.2011 17:34:44,074] [main] INFO  playground.droeder.data.GraphMatching  - 11659 of 12033 edges have one or more match after bottom-up edge-matching...
[30.06.2011 17:34:44,074] [main] INFO  playground.droeder.data.GraphMatching  - edge matching finished...
[30.06.2011 17:34:44,074] [main] INFO  playground.droeder.data.GraphMatching  - bottom-up-matching finished...
[...]
[17.10.2011 14:17:25,168] [main] INFO  playground.droeder.gis.DaShapeWriter  - D:/VSP/2D_Sim/output/rstep_12.shp written!
[17.10.2011 14:17:25,197] [main] INFO  playground.droeder.gis.DaShapeWriter  - D:/VSP/2D_Sim/output/rstep_170.shp written!
[17.10.2011 14:17:25,223] [main] INFO  playground.droeder.gis.DaShapeWriter  - D:/VSP/2D_Sim/output/rstep_21.shp written!
[17.10.2011 14:17:25,261] [main] INFO  playground.droeder.gis.DaShapeWriter  - D:/VSP/2D_Sim/output/rstep_171.shp written!
[17.10.2011 14:17:25,301] [main] INFO  playground.droeder.gis.DaShapeWriter  - D:/VSP/2D_Sim/output/rstep_20.shp written!
[17.10.2011 14:17:25,332] [main] INFO  playground.droeder.gis.DaShapeWriter  - D:/VSP/2D_Sim/output/rstep_174.shp written!
[17.10.2011 14:17:25,357] [main] INFO  playground.droeder.gis.DaShapeWriter  - D:/VSP/2D_Sim/output/rstep_175.shp written!
[17.10.2011 14:17:25,385] [main] INFO  playground.droeder.gis.DaShapeWriter  - D:/VSP/2D_Sim/output/rstep_172.shp written!
[17.10.2011 14:17:25,414] [main] INFO  playground.droeder.gis.DaShapeWriter  - D:/VSP/2D_Sim/output/rstep_173.shp written!
[17.10.2011 14:17:25,450] [main] INFO  playground.droeder.gis.DaShapeWriter  - D:/VSP/2D_Sim/output/rstep_188.shp written!
[17.10.2011 14:17:25,482] [main] INFO  playground.droeder.gis.DaShapeWriter  - D:/VSP/2D_Sim/output/rstep_187.shp written!
[17.10.2011 14:17:25,515] [main] INFO  playground.droeder.gis.DaShapeWriter  - D:/VSP/2D_Sim/output/rstep_189.shp written!
[17.10.2011 14:17:25,549] [main] INFO  playground.droeder.gis.DaShapeWriter  - D:/VSP/2D_Sim/output/rstep_180.shp written!
[17.10.2011 14:17:25,573] [main] INFO  playground.droeder.gis.DaShapeWriter  - D:/VSP/2D_Sim/output/rstep_181.shp written!
[17.10.2011 14:17:25,596] [main] INFO  playground.droeder.gis.DaShapeWriter  - D:/VSP/2D_Sim/output/rstep_10.shp written!
[17.10.2011 14:17:25,622] [main] INFO  playground.droeder.gis.DaShapeWriter  - D:/VSP/2D_Sim/output/rstep_182.shp written!
[17.10.2011 14:17:25,646] [main] INFO  playground.droeder.gis.DaShapeWriter  - D:/VSP/2D_Sim/output/rstep_183.shp written!
[17.10.2011 14:17:25,668] [main] INFO  playground.droeder.gis.DaShapeWriter  - D:/VSP/2D_Sim/output/rstep_184.shp written!
[17.10.2011 14:17:25,693] [main] INFO  playground.droeder.gis.DaShapeWriter  - D:/VSP/2D_Sim/output/rstep_185.shp written!
[17.10.2011 14:17:25,716] [main] INFO  playground.droeder.gis.DaShapeWriter  - D:/VSP/2D_Sim/output/rstep_186.shp written!
[17.10.2011 14:17:25,747] [main] INFO  playground.droeder.gis.DaShapeWriter  - D:/VSP/2D_Sim/output/rstep_116.shp written!
[17.10.2011 14:17:25,770] [main] INFO  playground.droeder.gis.DaShapeWriter  - D:/VSP/2D_Sim/output/rstep_117.shp written!
[17.10.2011 14:17:25,794] [main] INFO  playground.droeder.gis.DaShapeWriter  - D:/VSP/2D_Sim/output/rstep_79.shp written!
[17.10.2011 14:17:25,817] [main] INFO  playground.droeder.gis.DaShapeWriter  - D:/VSP/2D_Sim/output/rstep_114.shp written!
[17.10.2011 14:17:25,845] [main] INFO  playground.droeder.gis.DaShapeWriter  - D:/VSP/2D_Sim/output/rstep_78.shp written!
[17.10.2011 14:17:25,868] [main] INFO  playground.droeder.gis.DaShapeWriter  - D:/VSP/2D_Sim/output/rstep_115.shp written!
[17.10.2011 14:17:25,891] [main] INFO  playground.droeder.gis.DaShapeWriter  - D:/VSP/2D_Sim/output/rstep_77.shp written!
[17.10.2011 14:17:25,919] [main] INFO  playground.droeder.gis.DaShapeWriter  - D:/VSP/2D_Sim/output/rstep_112.shp written!
[17.10.2011 14:17:25,942] [main] INFO  playground.droeder.gis.DaShapeWriter  - D:/VSP/2D_Sim/output/rstep_113.shp written!
[17.10.2011 14:17:25,966] [main] INFO  playground.droeder.gis.DaShapeWriter  - D:/VSP/2D_Sim/output/rstep_110.shp written!
[17.10.2011 14:17:25,989] [main] INFO  playground.droeder.gis.DaShapeWriter  - D:/VSP/2D_Sim/output/rstep_111.shp written!
[17.10.2011 14:17:26,017] [main] INFO  playground.droeder.gis.DaShapeWriter  - D:/VSP/2D_Sim/output/rstep_118.shp written!
[17.10.2011 14:17:26,040] [main] INFO  playground.droeder.gis.DaShapeWriter  - D:/VSP/2D_Sim/output/rstep_119.shp written!
[17.10.2011 14:17:26,064] [main] INFO  playground.droeder.gis.DaShapeWriter  - D:/VSP/2D_Sim/output/rstep_82.shp written!
[17.10.2011 14:17:26,098] [main] INFO  playground.droeder.gis.DaShapeWriter  - D:/VSP/2D_Sim/output/rstep_83.shp written!
[17.10.2011 14:17:26,121] [main] INFO  playground.droeder.gis.DaShapeWriter  - D:/VSP/2D_Sim/output/rstep_80.shp written!
[17.10.2011 14:17:26,145] [main] INFO  playground.droeder.gis.DaShapeWriter  - D:/VSP/2D_Sim/output/rstep_81.shp written!
[17.10.2011 14:17:26,178] [main] INFO  playground.droeder.gis.DaShapeWriter  - D:/VSP/2D_Sim/output/rstep_86.shp written!
[17.10.2011 14:17:26,202] [main] INFO  playground.droeder.gis.DaShapeWriter  - D:/VSP/2D_Sim/output/rstep_87.shp written!
[17.10.2011 14:17:26,226] [main] INFO  playground.droeder.gis.DaShapeWriter  - D:/VSP/2D_Sim/output/rstep_84.shp written!
[17.10.2011 14:17:26,249] [main] INFO  playground.droeder.gis.DaShapeWriter  - D:/VSP/2D_Sim/output/rstep_85.shp written!
[17.10.2011 14:17:26,290] [main] INFO  playground.droeder.gis.DaShapeWriter  - D:/VSP/2D_Sim/output/rstep_67.shp written!
[17.10.2011 14:17:26,322] [main] INFO  playground.droeder.gis.DaShapeWriter  - D:/VSP/2D_Sim/output/rstep_125.shp written!
[17.10.2011 14:17:26,360] [main] INFO  playground.droeder.gis.DaShapeWriter  - D:/VSP/2D_Sim/output/rstep_66.shp written!
[17.10.2011 14:17:26,396] [main] INFO  playground.droeder.gis.DaShapeWriter  - D:/VSP/2D_Sim/output/rstep_126.shp written!
[17.10.2011 14:17:26,432] [main] INFO  playground.droeder.gis.DaShapeWriter  - D:/VSP/2D_Sim/output/rstep_69.shp written!
[17.10.2011 14:17:26,625] [main] INFO  playground.droeder.gis.DaShapeWriter  - D:/VSP/2D_Sim/output/rstep_127.shp written!
[17.10.2011 14:17:26,665] [main] INFO  playground.droeder.gis.DaShapeWriter  - D:/VSP/2D_Sim/output/rstep_68.shp written!
[17.10.2011 14:17:26,719] [main] INFO  playground.droeder.gis.DaShapeWriter  - D:/VSP/2D_Sim/output/rstep_128.shp written!
[17.10.2011 14:17:26,750] [main] INFO  playground.droeder.gis.DaShapeWriter  - D:/VSP/2D_Sim/output/rstep_121.shp written!
[17.10.2011 14:17:26,773] [main] INFO  playground.droeder.gis.DaShapeWriter  - D:/VSP/2D_Sim/output/rstep_122.shp written!
[17.10.2011 14:17:26,796] [main] INFO  playground.droeder.gis.DaShapeWriter  - D:/VSP/2D_Sim/output/rstep_123.shp written!
[17.10.2011 14:17:26,819] [main] INFO  playground.droeder.gis.DaShapeWriter  - D:/VSP/2D_Sim/output/rstep_124.shp written!
[17.10.2011 14:17:26,843] [main] INFO  playground.droeder.gis.DaShapeWriter  - D:/VSP/2D_Sim/output/rstep_129.shp written!
[17.10.2011 14:17:26,867] [main] INFO  playground.droeder.gis.DaShapeWriter  - D:/VSP/2D_Sim/output/rstep_70.shp written!
[17.10.2011 14:17:26,889] [main] INFO  playground.droeder.gis.DaShapeWriter  - D:/VSP/2D_Sim/output/rstep_71.shp written!
[17.10.2011 14:17:26,919] [main] INFO  playground.droeder.gis.DaShapeWriter  - D:/VSP/2D_Sim/output/rstep_120.shp written!
[17.10.2011 14:17:26,944] [main] INFO  playground.droeder.gis.DaShapeWriter  - D:/VSP/2D_Sim/output/rstep_72.shp written!
[17.10.2011 14:17:26,967] [main] INFO  playground.droeder.gis.DaShapeWriter  - D:/VSP/2D_Sim/output/rstep_73.shp written!
[17.10.2011 14:17:27,000] [main] INFO  playground.droeder.gis.DaShapeWriter  - D:/VSP/2D_Sim/output/rstep_74.shp written!
[17.10.2011 14:17:27,026] [main] INFO  playground.droeder.gis.DaShapeWriter  - D:/VSP/2D_Sim/output/rstep_75.shp written!
[17.10.2011 14:17:27,061] [main] INFO  playground.droeder.gis.DaShapeWriter  - D:/VSP/2D_Sim/output/rstep_76.shp written!
[17.10.2011 14:17:27,088] [main] INFO  playground.droeder.gis.DaShapeWriter  - D:/VSP/2D_Sim/output/rstep_134.shp written!
[17.10.2011 14:17:27,110] [main] INFO  playground.droeder.gis.DaShapeWriter  - D:/VSP/2D_Sim/output/rstep_135.shp written!
[17.10.2011 14:17:27,133] [main] INFO  playground.droeder.gis.DaShapeWriter  - D:/VSP/2D_Sim/output/rstep_132.shp written!
[17.10.2011 14:17:27,156] [main] INFO  playground.droeder.gis.DaShapeWriter  - D:/VSP/2D_Sim/output/rstep_59.shp written!
[17.10.2011 14:17:27,180] [main] INFO  playground.droeder.gis.DaShapeWriter  - D:/VSP/2D_Sim/output/rstep_133.shp written!
[17.10.2011 14:17:27,203] [main] INFO  playground.droeder.gis.DaShapeWriter  - D:/VSP/2D_Sim/output/rstep_58.shp written!
[17.10.2011 14:17:27,225] [main] INFO  playground.droeder.gis.DaShapeWriter  - D:/VSP/2D_Sim/output/rstep_138.shp written!
[17.10.2011 14:17:27,254] [main] INFO  playground.droeder.gis.DaShapeWriter  - D:/VSP/2D_Sim/output/rstep_57.shp written!
[17.10.2011 14:17:27,300] [main] INFO  playground.droeder.gis.DaShapeWriter  - D:/VSP/2D_Sim/output/rstep_139.shp written!
[17.10.2011 14:17:27,328] [main] INFO  playground.droeder.gis.DaShapeWriter  - D:/VSP/2D_Sim/output/rstep_56.shp written!
[17.10.2011 14:17:27,355] [main] INFO  playground.droeder.gis.DaShapeWriter  - D:/VSP/2D_Sim/output/rstep_136.shp written!
[17.10.2011 14:17:27,400] [main] INFO  playground.droeder.gis.DaShapeWriter  - D:/VSP/2D_Sim/output/rstep_55.shp written!
[17.10.2011 14:17:27,430] [main] INFO  playground.droeder.gis.DaShapeWriter  - D:/VSP/2D_Sim/output/rstep_137.shp written!
[17.10.2011 14:17:27,458] [main] INFO  playground.droeder.gis.DaShapeWriter  - D:/VSP/2D_Sim/output/rstep_64.shp written!
[17.10.2011 14:17:27,492] [main] INFO  playground.droeder.gis.DaShapeWriter  - D:/VSP/2D_Sim/output/rstep_65.shp written!
[17.10.2011 14:17:27,522] [main] INFO  playground.droeder.gis.DaShapeWriter  - D:/VSP/2D_Sim/output/rstep_62.shp written!
[17.10.2011 14:17:27,554] [main] INFO  playground.droeder.gis.DaShapeWriter  - D:/VSP/2D_Sim/output/rstep_63.shp written!
[17.10.2011 14:17:27,593] [main] INFO  playground.droeder.gis.DaShapeWriter  - D:/VSP/2D_Sim/output/rstep_60.shp written!
[17.10.2011 14:17:27,624] [main] INFO  playground.droeder.gis.DaShapeWriter  - D:/VSP/2D_Sim/output/rstep_131.shp written!
[17.10.2011 14:17:27,654] [main] INFO  playground.droeder.gis.DaShapeWriter  - D:/VSP/2D_Sim/output/rstep_61.shp written!
[17.10.2011 14:17:27,685] [main] INFO  playground.droeder.gis.DaShapeWriter  - D:/VSP/2D_Sim/output/rstep_130.shp written!
[17.10.2011 14:17:27,720] [main] INFO  playground.droeder.gis.DaShapeWriter  - D:/VSP/2D_Sim/output/rstep_49.shp written!
[17.10.2011 14:17:27,764] [main] INFO  playground.droeder.gis.DaShapeWriter  - D:/VSP/2D_Sim/output/rstep_143.shp written!
[17.10.2011 14:17:27,796] [main] INFO  playground.droeder.gis.DaShapeWriter  - D:/VSP/2D_Sim/output/rstep_48.shp written!
[17.10.2011 14:17:27,824] [main] INFO  playground.droeder.gis.DaShapeWriter  - D:/VSP/2D_Sim/output/rstep_144.shp written!
[17.10.2011 14:17:27,857] [main] INFO  playground.droeder.gis.DaShapeWriter  - D:/VSP/2D_Sim/output/rstep_145.shp written!
[17.10.2011 14:17:27,889] [main] INFO  playground.droeder.gis.DaShapeWriter  - D:/VSP/2D_Sim/output/rstep_146.shp written!
[17.10.2011 14:17:27,913] [main] INFO  playground.droeder.gis.DaShapeWriter  - D:/VSP/2D_Sim/output/rstep_45.shp written!
[17.10.2011 14:17:27,936] [main] INFO  playground.droeder.gis.DaShapeWriter  - D:/VSP/2D_Sim/output/rstep_147.shp written!
[17.10.2011 14:17:27,967] [main] INFO  playground.droeder.gis.DaShapeWriter  - D:/VSP/2D_Sim/output/rstep_44.shp written!
[17.10.2011 14:17:27,995] [main] INFO  playground.droeder.gis.DaShapeWriter  - D:/VSP/2D_Sim/output/rstep_148.shp written!
[17.10.2011 14:17:28,028] [main] INFO  playground.droeder.gis.DaShapeWriter  - D:/VSP/2D_Sim/output/rstep_47.shp written!
[17.10.2011 14:17:28,058] [main] INFO  playground.droeder.gis.DaShapeWriter  - D:/VSP/2D_Sim/output/rstep_149.shp written!
[17.10.2011 14:17:28,089] [main] INFO  playground.droeder.gis.DaShapeWriter  - D:/VSP/2D_Sim/output/rstep_46.shp written!
[17.10.2011 14:17:28,119] [main] INFO  playground.droeder.gis.DaShapeWriter  - D:/VSP/2D_Sim/output/rstep_51.shp written!
[17.10.2011 14:17:28,148] [main] INFO  playground.droeder.gis.DaShapeWriter  - D:/VSP/2D_Sim/output/rstep_52.shp written!
[17.10.2011 14:17:28,176] [main] INFO  playground.droeder.gis.DaShapeWriter  - D:/VSP/2D_Sim/output/rstep_53.shp written!
[17.10.2011 14:17:28,204] [main] INFO  playground.droeder.gis.DaShapeWriter  - D:/VSP/2D_Sim/output/rstep_54.shp written!
[17.10.2011 14:17:28,231] [main] INFO  playground.droeder.gis.DaShapeWriter  - D:/VSP/2D_Sim/output/rstep_140.shp written!
[17.10.2011 14:17:28,259] [main] INFO  playground.droeder.gis.DaShapeWriter  - D:/VSP/2D_Sim/output/rstep_142.shp written!
[17.10.2011 14:17:28,287] [main] INFO  playground.droeder.gis.DaShapeWriter  - D:/VSP/2D_Sim/output/rstep_50.shp written!
[17.10.2011 14:17:28,311] [main] INFO  playground.droeder.gis.DaShapeWriter  - D:/VSP/2D_Sim/output/rstep_141.shp written!
[17.10.2011 14:17:28,334] [main] INFO  playground.droeder.gis.DaShapeWriter  - D:/VSP/2D_Sim/output/rstep_109.shp written!
[17.10.2011 14:17:28,363] [main] INFO  playground.droeder.gis.DaShapeWriter  - D:/VSP/2D_Sim/output/rstep_108.shp written!
[17.10.2011 14:17:28,388] [main] INFO  playground.droeder.gis.DaShapeWriter  - D:/VSP/2D_Sim/output/rstep_107.shp written!
[17.10.2011 14:17:28,415] [main] INFO  playground.droeder.gis.DaShapeWriter  - D:/VSP/2D_Sim/output/rstep_106.shp written!
[17.10.2011 14:17:28,441] [main] INFO  playground.droeder.gis.DaShapeWriter  - D:/VSP/2D_Sim/output/rstep_105.shp written!
[17.10.2011 14:17:28,479] [main] INFO  playground.droeder.gis.DaShapeWriter  - D:/VSP/2D_Sim/output/rstep_104.shp written!
[17.10.2011 14:17:28,502] [main] INFO  playground.droeder.gis.DaShapeWriter  - D:/VSP/2D_Sim/output/rstep_103.shp written!
[17.10.2011 14:17:28,527] [main] INFO  playground.droeder.gis.DaShapeWriter  - D:/VSP/2D_Sim/output/rstep_99.shp written!
[17.10.2011 14:17:28,550] [main] INFO  playground.droeder.gis.DaShapeWriter  - D:/VSP/2D_Sim/output/rstep_102.shp written!
[17.10.2011 14:17:28,572] [main] INFO  playground.droeder.gis.DaShapeWriter  - D:/VSP/2D_Sim/output/rstep_101.shp written!
[17.10.2011 14:17:28,597] [main] INFO  playground.droeder.gis.DaShapeWriter  - D:/VSP/2D_Sim/output/rstep_100.shp written!
[17.10.2011 14:17:28,619] [main] INFO  playground.droeder.gis.DaShapeWriter  - D:/VSP/2D_Sim/output/rstep_98.shp written!
[17.10.2011 14:17:28,642] [main] INFO  playground.droeder.gis.DaShapeWriter  - D:/VSP/2D_Sim/output/rstep_97.shp written!
[17.10.2011 14:17:28,664] [main] INFO  playground.droeder.gis.DaShapeWriter  - D:/VSP/2D_Sim/output/rstep_96.shp written!
[17.10.2011 14:17:28,690] [main] INFO  playground.droeder.gis.DaShapeWriter  - D:/VSP/2D_Sim/output/rstep_95.shp written!
[17.10.2011 14:17:28,713] [main] INFO  playground.droeder.gis.DaShapeWriter  - D:/VSP/2D_Sim/output/rstep_94.shp written!
[17.10.2011 14:17:28,736] [main] INFO  playground.droeder.gis.DaShapeWriter  - D:/VSP/2D_Sim/output/rstep_93.shp written!
[17.10.2011 14:17:28,760] [main] INFO  playground.droeder.gis.DaShapeWriter  - D:/VSP/2D_Sim/output/rstep_92.shp written!
[17.10.2011 14:17:28,783] [main] INFO  playground.droeder.gis.DaShapeWriter  - D:/VSP/2D_Sim/output/rstep_91.shp written!
[17.10.2011 14:17:28,808] [main] INFO  playground.droeder.gis.DaShapeWriter  - D:/VSP/2D_Sim/output/rstep_90.shp written!
[17.10.2011 14:17:28,830] [main] INFO  playground.droeder.gis.DaShapeWriter  - D:/VSP/2D_Sim/output/rstep_88.shp written!
[17.10.2011 14:17:28,855] [main] INFO  playground.droeder.gis.DaShapeWriter  - D:/VSP/2D_Sim/output/rstep_89.shp written!
[17.10.2011 14:17:28,878] [main] INFO  playground.droeder.gis.DaShapeWriter  - D:/VSP/2D_Sim/output/rstep_195.shp written!
[17.10.2011 14:17:28,901] [main] INFO  playground.droeder.gis.DaShapeWriter  - D:/VSP/2D_Sim/output/rstep_194.shp written!
[17.10.2011 14:17:28,923] [main] INFO  playground.droeder.gis.DaShapeWriter  - D:/VSP/2D_Sim/output/rstep_197.shp written!
[17.10.2011 14:17:28,948] [main] INFO  playground.droeder.gis.DaShapeWriter  - D:/VSP/2D_Sim/output/rstep_196.shp written!
[17.10.2011 14:17:28,973] [main] INFO  playground.droeder.gis.DaShapeWriter  - D:/VSP/2D_Sim/output/rstep_191.shp written!
[17.10.2011 14:17:28,996] [main] INFO  playground.droeder.gis.DaShapeWriter  - D:/VSP/2D_Sim/output/rstep_190.shp written!
[17.10.2011 14:17:29,021] [main] INFO  playground.droeder.gis.DaShapeWriter  - D:/VSP/2D_Sim/output/rstep_193.shp written!
[17.10.2011 14:17:29,044] [main] INFO  playground.droeder.gis.DaShapeWriter  - D:/VSP/2D_Sim/output/rstep_192.shp written!
[17.10.2011 14:17:29,070] [main] INFO  playground.droeder.gis.DaShapeWriter  - D:/VSP/2D_Sim/output/rstep_198.shp written!
[17.10.2011 14:17:29,093] [main] INFO  playground.droeder.gis.DaShapeWriter  - D:/VSP/2D_Sim/output/rstep_199.shp written!
[17.10.2011 14:18:57,533] [main] INFO  playground.droeder.gis.DaShapeWriter  - D:/VSP/2D_Sim/output/vo_agent_3.shp written!
[17.10.2011 14:18:57,656] [main] INFO  playground.droeder.gis.DaShapeWriter  - D:/VSP/2D_Sim/output/vo_agent_2.shp written!
[17.10.2011 14:18:57,744] [main] INFO  playground.droeder.gis.DaShapeWriter  - D:/VSP/2D_Sim/output/vo_agent_1.shp written!
[17.10.2011 14:18:57,822] [main] INFO  playground.droeder.gis.DaShapeWriter  - D:/VSP/2D_Sim/output/vo_agent_0.shp written!
[17.10.2011 14:18:57,890] [main] INFO  playground.droeder.gis.DaShapeWriter  - D:/VSP/2D_Sim/output/vo_agent_4.shp written!
[17.10.2011 14:18:57,939] [main] INFO  playground.droeder.gis.DaShapeWriter  - D:/VSP/2D_Sim/output/agent_1.shp written!
[17.10.2011 14:18:58,064] [main] INFO  playground.droeder.gis.DaShapeWriter  - D:/VSP/2D_Sim/output/agent_0.shp written!
[17.10.2011 14:18:58,144] [main] INFO  playground.droeder.gis.DaShapeWriter  - D:/VSP/2D_Sim/output/agent_3.shp written!
[17.10.2011 14:18:58,196] [main] INFO  playground.droeder.gis.DaShapeWriter  - D:/VSP/2D_Sim/output/agent_4.shp written!
[17.10.2011 14:18:58,244] [main] INFO  playground.droeder.gis.DaShapeWriter  - D:/VSP/2D_Sim/output/agent_2.shp written!
[17.10.2011 14:18:58,269] [main] INFO  playground.droeder.gis.DaShapeWriter  - D:/VSP/2D_Sim/output/step_35.shp written!
[17.10.2011 14:18:58,308] [main] INFO  playground.droeder.gis.DaShapeWriter  - D:/VSP/2D_Sim/output/step_36.shp written!
[17.10.2011 14:18:58,347] [main] INFO  playground.droeder.gis.DaShapeWriter  - D:/VSP/2D_Sim/output/step_33.shp written!
[17.10.2011 14:18:58,381] [main] INFO  playground.droeder.gis.DaShapeWriter  - D:/VSP/2D_Sim/output/step_159.shp written!
[17.10.2011 14:18:58,419] [main] INFO  playground.droeder.gis.DaShapeWriter  - D:/VSP/2D_Sim/output/step_34.shp written!
[17.10.2011 14:18:58,444] [main] INFO  playground.droeder.gis.DaShapeWriter  - D:/VSP/2D_Sim/output/step_158.shp written!
[17.10.2011 14:18:58,469] [main] INFO  playground.droeder.gis.DaShapeWriter  - D:/VSP/2D_Sim/output/step_39.shp written!
[17.10.2011 14:18:58,496] [main] INFO  playground.droeder.gis.DaShapeWriter  - D:/VSP/2D_Sim/output/step_157.shp written!
[17.10.2011 14:18:58,521] [main] INFO  playground.droeder.gis.DaShapeWriter  - D:/VSP/2D_Sim/output/step_156.shp written!
[17.10.2011 14:18:58,546] [main] INFO  playground.droeder.gis.DaShapeWriter  - D:/VSP/2D_Sim/output/step_37.shp written!
[17.10.2011 14:18:58,570] [main] INFO  playground.droeder.gis.DaShapeWriter  - D:/VSP/2D_Sim/output/step_155.shp written!
[17.10.2011 14:18:58,601] [main] INFO  playground.droeder.gis.DaShapeWriter  - D:/VSP/2D_Sim/output/step_38.shp written!
[17.10.2011 14:18:58,629] [main] INFO  playground.droeder.gis.DaShapeWriter  - D:/VSP/2D_Sim/output/step_154.shp written!
[17.10.2011 14:18:58,659] [main] INFO  playground.droeder.gis.DaShapeWriter  - D:/VSP/2D_Sim/output/step_152.shp written!
[17.10.2011 14:18:58,686] [main] INFO  playground.droeder.gis.DaShapeWriter  - D:/VSP/2D_Sim/output/step_153.shp written!
