<?xml version="1.0" encoding="utf-8"?>
<!DOCTYPE plans SYSTEM "http://www.matsim.org/files/dtd/plans_v4.dtd">

<plans>

<!-- ====================================================================== -->
	<person id="1">
		<plan>
			<act type="h" link="60" end_time="07:54:00" />
			<leg mode="car" >
				<route trav_time="00:00:05">
					0 1 2
				</route>
			</leg>
			<act type="transitInteraction" end_time="00:00:00" link="1"/>
			<leg mode="pt">
				<route trav_time="00:00:50">
					PT1===2===Red Line===Red route 0_24===19 
				</route>
			</leg>
			<act type="transitInteraction" end_time="00:00:00" link="38" />
			<leg mode="car" >
				<route>
					19 18
				</route>
			</leg>
			<act type="w" link="55"  />
		</plan>
	</person>
<!-- ====================================================================== -->
</plans>