<?xml version="1.0" encoding="UTF-8"?>

<carriers xmlns="http://www.matsim.org/files/dtd" xmlns:xsi="http://www.w3.org/2001/XMLSchema-instance" xsi:schemaLocation="http://www.matsim.org/files/dtd http://www.matsim.org/files/dtd/carriersDefinitions_v2.1.xsd">
	<carrier id="testCarrier1">
		<attributes>
			<attribute name="jspritIterations" class="java.lang.Integer">5</attribute>
		</attributes>
		<capabilities fleetSize="FINITE">
			<vehicles>
				<vehicle id="testVehicle1_testCarrier1_i(2,0)_start27000_1" depotLinkId="i(2,0)" typeId="testVehicle1" earliestStart="07:30:00" latestEnd="15:30:00"/>
			</vehicles>
		</capabilities>
		<shipments>
			<shipment id="Shipment_i(2,0)_j(1,2)" from="i(2,0)" to="j(1,2)" size="1" startPickup="07:00:00" endPickup="18:00:00" startDelivery="07:00:00" endDelivery="18:00:00" pickupServiceTime="00:00:00" deliveryServiceTime="00:03:00"/>
			<shipment id="Shipment_i(2,0)_j(6,4)R" from="i(2,0)" to="j(6,4)R" size="1" startPickup="07:00:00" endPickup="18:00:00" startDelivery="07:00:00" endDelivery="18:00:00" pickupServiceTime="00:00:00" deliveryServiceTime="00:03:00"/>
			<shipment id="Shipment_i(2,0)_j(9,5)" from="i(2,0)" to="j(9,5)" size="1" startPickup="07:00:00" endPickup="18:00:00" startDelivery="07:00:00" endDelivery="18:00:00" pickupServiceTime="00:00:00" deliveryServiceTime="00:03:00"/>
			<shipment id="Shipment_i(2,0)_i(6,7)R" from="i(2,0)" to="i(6,7)R" size="1" startPickup="07:00:00" endPickup="18:00:00" startDelivery="07:00:00" endDelivery="18:00:00" pickupServiceTime="00:00:00" deliveryServiceTime="00:03:00"/>
			<shipment id="Shipment_i(2,0)_j(8,2)R" from="i(2,0)" to="j(8,2)R" size="1" startPickup="07:00:00" endPickup="18:00:00" startDelivery="07:00:00" endDelivery="18:00:00" pickupServiceTime="00:00:00" deliveryServiceTime="00:03:00"/>
			<shipment id="Shipment_i(2,0)_j(7,5)" from="i(2,0)" to="j(7,5)" size="1" startPickup="07:00:00" endPickup="18:00:00" startDelivery="07:00:00" endDelivery="18:00:00" pickupServiceTime="00:00:00" deliveryServiceTime="00:03:00"/>
			<shipment id="Shipment_i(2,0)_i(9,1)R" from="i(2,0)" to="i(9,1)R" size="1" startPickup="07:00:00" endPickup="18:00:00" startDelivery="07:00:00" endDelivery="18:00:00" pickupServiceTime="00:00:00" deliveryServiceTime="00:03:00"/>
			<shipment id="Shipment_i(2,0)_i(9,2)" from="i(2,0)" to="i(9,2)" size="1" startPickup="07:00:00" endPickup="18:00:00" startDelivery="07:00:00" endDelivery="18:00:00" pickupServiceTime="00:00:00" deliveryServiceTime="00:03:00"/>
			<shipment id="Shipment_i(2,0)_j(0,4)R" from="i(2,0)" to="j(0,4)R" size="1" startPickup="07:00:00" endPickup="18:00:00" startDelivery="07:00:00" endDelivery="18:00:00" pickupServiceTime="00:00:00" deliveryServiceTime="00:03:00"/>
			<shipment id="Shipment_i(2,0)_i(2,8)" from="i(2,0)" to="i(2,8)" size="1" startPickup="07:00:00" endPickup="18:00:00" startDelivery="07:00:00" endDelivery="18:00:00" pickupServiceTime="00:00:00" deliveryServiceTime="00:03:00"/>
			<shipment id="Shipment_i(2,0)_j(1,9)" from="i(2,0)" to="j(1,9)" size="1" startPickup="07:00:00" endPickup="18:00:00" startDelivery="07:00:00" endDelivery="18:00:00" pickupServiceTime="00:00:00" deliveryServiceTime="00:03:00"/>
			<shipment id="Shipment_i(2,0)_i(7,0)" from="i(2,0)" to="i(7,0)" size="1" startPickup="07:00:00" endPickup="18:00:00" startDelivery="07:00:00" endDelivery="18:00:00" pickupServiceTime="00:00:00" deliveryServiceTime="00:03:00"/>
			<shipment id="Shipment_i(2,0)_j(7,3)" from="i(2,0)" to="j(7,3)" size="1" startPickup="07:00:00" endPickup="18:00:00" startDelivery="07:00:00" endDelivery="18:00:00" pickupServiceTime="00:00:00" deliveryServiceTime="00:03:00"/>
			<shipment id="Shipment_i(2,0)_i(4,9)R" from="i(2,0)" to="i(4,9)R" size="1" startPickup="07:00:00" endPickup="18:00:00" startDelivery="07:00:00" endDelivery="18:00:00" pickupServiceTime="00:00:00" deliveryServiceTime="00:03:00"/>
			<shipment id="Shipment_i(2,0)_j(0,1)R" from="i(2,0)" to="j(0,1)R" size="1" startPickup="07:00:00" endPickup="18:00:00" startDelivery="07:00:00" endDelivery="18:00:00" pickupServiceTime="00:00:00" deliveryServiceTime="00:03:00"/>
			<shipment id="Shipment_i(2,0)_j(6,5)R" from="i(2,0)" to="j(6,5)R" size="1" startPickup="07:00:00" endPickup="18:00:00" startDelivery="07:00:00" endDelivery="18:00:00" pickupServiceTime="00:00:00" deliveryServiceTime="00:03:00"/>
			<shipment id="Shipment_i(2,0)_j(4,1)R" from="i(2,0)" to="j(4,1)R" size="1" startPickup="07:00:00" endPickup="18:00:00" startDelivery="07:00:00" endDelivery="18:00:00" pickupServiceTime="00:00:00" deliveryServiceTime="00:03:00"/>
			<shipment id="Shipment_i(2,0)_i(7,1)R" from="i(2,0)" to="i(7,1)R" size="1" startPickup="07:00:00" endPickup="18:00:00" startDelivery="07:00:00" endDelivery="18:00:00" pickupServiceTime="00:00:00" deliveryServiceTime="00:03:00"/>
			<shipment id="Shipment_i(2,0)_j(9,2)" from="i(2,0)" to="j(9,2)" size="1" startPickup="07:00:00" endPickup="18:00:00" startDelivery="07:00:00" endDelivery="18:00:00" pickupServiceTime="00:00:00" deliveryServiceTime="00:03:00"/>
			<shipment id="Shipment_i(2,0)_j(6,1)R" from="i(2,0)" to="j(6,1)R" size="1" startPickup="07:00:00" endPickup="18:00:00" startDelivery="07:00:00" endDelivery="18:00:00" pickupServiceTime="00:00:00" deliveryServiceTime="00:03:00"/>
			<shipment id="Shipment_i(2,0)_i(4,0)" from="i(2,0)" to="i(4,0)" size="1" startPickup="07:00:00" endPickup="18:00:00" startDelivery="07:00:00" endDelivery="18:00:00" pickupServiceTime="00:00:00" deliveryServiceTime="00:03:00"/>
			<shipment id="Shipment_i(2,0)_i(5,9)R" from="i(2,0)" to="i(5,9)R" size="1" startPickup="07:00:00" endPickup="18:00:00" startDelivery="07:00:00" endDelivery="18:00:00" pickupServiceTime="00:00:00" deliveryServiceTime="00:03:00"/>
			<shipment id="Shipment_i(2,0)_j(1,4)" from="i(2,0)" to="j(1,4)" size="1" startPickup="07:00:00" endPickup="18:00:00" startDelivery="07:00:00" endDelivery="18:00:00" pickupServiceTime="00:00:00" deliveryServiceTime="00:03:00"/>
			<shipment id="Shipment_i(2,0)_i(8,7)R" from="i(2,0)" to="i(8,7)R" size="1" startPickup="07:00:00" endPickup="18:00:00" startDelivery="07:00:00" endDelivery="18:00:00" pickupServiceTime="00:00:00" deliveryServiceTime="00:03:00"/>
			<shipment id="Shipment_i(2,0)_i(4,1)R" from="i(2,0)" to="i(4,1)R" size="1" startPickup="07:00:00" endPickup="18:00:00" startDelivery="07:00:00" endDelivery="18:00:00" pickupServiceTime="00:00:00" deliveryServiceTime="00:03:00"/>
			<shipment id="Shipment_i(2,0)_j(3,2)" from="i(2,0)" to="j(3,2)" size="1" startPickup="07:00:00" endPickup="18:00:00" startDelivery="07:00:00" endDelivery="18:00:00" pickupServiceTime="00:00:00" deliveryServiceTime="00:03:00"/>
			<shipment id="Shipment_i(2,0)_i(9,8)" from="i(2,0)" to="i(9,8)" size="1" startPickup="07:00:00" endPickup="18:00:00" startDelivery="07:00:00" endDelivery="18:00:00" pickupServiceTime="00:00:00" deliveryServiceTime="00:03:00"/>
			<shipment id="Shipment_i(2,0)_i(6,8)" from="i(2,0)" to="i(6,8)" size="1" startPickup="07:00:00" endPickup="18:00:00" startDelivery="07:00:00" endDelivery="18:00:00" pickupServiceTime="00:00:00" deliveryServiceTime="00:03:00"/>
			<shipment id="Shipment_i(2,0)_i(9,5)R" from="i(2,0)" to="i(9,5)R" size="1" startPickup="07:00:00" endPickup="18:00:00" startDelivery="07:00:00" endDelivery="18:00:00" pickupServiceTime="00:00:00" deliveryServiceTime="00:03:00"/>
			<shipment id="Shipment_i(2,0)_i(7,7)R" from="i(2,0)" to="i(7,7)R" size="1" startPickup="07:00:00" endPickup="18:00:00" startDelivery="07:00:00" endDelivery="18:00:00" pickupServiceTime="00:00:00" deliveryServiceTime="00:03:00"/>
		</shipments>
	</carrier>
</carriers>