<?xml version="1.0" encoding="utf-8"?>
<!DOCTYPE population SYSTEM "http://www.matsim.org/files/dtd/population_v6.dtd">

<population>



<!-- ====================================================================== -->

	<person id="person_0">
		<attributes>
			<attribute name="employed" class="java.lang.Boolean" >false</attribute>
		</attributes>
		<plan score="123.31436840458322" selected="yes">
			<activity type="home" link="link_0_3" x="-500.0" y="9000.0" end_time="08:00:00" >
			</activity>
			<leg mode="car">
				<route type="links" start_link="link_0_3" end_link="link_6_9" trav_time="00:33:07" distance="28600.0">link_0_3 link_3_4 link_4_5 link_5_6 link_6_9</route>
			</leg>
			<activity type="work" link="link_6_9" x="10500.0" y="9000.0" end_time="16:00:01" >
			</activity>
			<leg mode="car">
				<route type="links" start_link="link_6_9" end_link="link_0_3" trav_time="00:19:11" distance="17000.0">link_6_9 link_9_6 link_6_2 link_2_1 link_1_3 link_3_0 link_0_3</route>
			</leg>
			<activity type="home" link="link_0_3" x="-500.0" y="9000.0" >
			</activity>
		</plan>

	</person>

<!-- ====================================================================== -->

	<person id="person_1">
		<attributes>
			<attribute name="employed" class="java.lang.Boolean" >false</attribute>
		</attributes>
		<plan score="123.2833920441405" selected="yes">
			<activity type="home" link="link_0_3" x="-500.0" y="9000.0" end_time="08:00:01" >
			</activity>
			<leg mode="car">
				<route type="links" start_link="link_0_3" end_link="link_6_9" trav_time="00:33:07" distance="28600.0">link_0_3 link_3_4 link_4_5 link_5_6 link_6_9</route>
			</leg>
			<activity type="work" link="link_6_9" x="10500.0" y="9000.0" end_time="16:00:01" >
			</activity>
			<leg mode="car">
				<route type="links" start_link="link_6_9" end_link="link_0_3" trav_time="00:19:11" distance="17000.0">link_6_9 link_9_6 link_6_2 link_2_1 link_1_3 link_3_0 link_0_3</route>
			</leg>
			<activity type="home" link="link_0_3" x="-500.0" y="9000.0" >
			</activity>
		</plan>

	</person>

<!-- ====================================================================== -->

	<person id="person_10">
		<attributes>
			<attribute name="employed" class="java.lang.Boolean" >false</attribute>
		</attributes>
		<plan score="123.05162499709499" selected="yes">
			<activity type="home" link="link_0_3" x="-500.0" y="9000.0" end_time="08:00:10" >
			</activity>
			<leg mode="car">
				<route type="links" start_link="link_0_3" end_link="link_6_9" trav_time="00:33:07" distance="28600.0">link_0_3 link_3_4 link_4_5 link_5_6 link_6_9</route>
			</leg>
			<activity type="work" link="link_6_9" x="10500.0" y="9000.0" end_time="16:00:01" >
			</activity>
			<leg mode="car">
				<route type="links" start_link="link_6_9" end_link="link_0_3" trav_time="00:19:11" distance="17000.0">link_6_9 link_9_6 link_6_2 link_2_1 link_1_3 link_3_0 link_0_3</route>
			</leg>
			<activity type="home" link="link_0_3" x="-500.0" y="9000.0" >
			</activity>
		</plan>

	</person>

<!-- ====================================================================== -->

	<person id="person_2">
		<attributes>
			<attribute name="employed" class="java.lang.Boolean" >false</attribute>
		</attributes>
		<plan score="123.25240803582949" selected="yes">
			<activity type="home" link="link_0_3" x="-500.0" y="9000.0" end_time="08:00:02" >
			</activity>
			<leg mode="car">
				<route type="links" start_link="link_0_3" end_link="link_6_9" trav_time="00:33:07" distance="28600.0">link_0_3 link_3_4 link_4_5 link_5_6 link_6_9</route>
			</leg>
			<activity type="work" link="link_6_9" x="10500.0" y="9000.0" end_time="16:00:01" >
			</activity>
			<leg mode="car">
				<route type="links" start_link="link_6_9" end_link="link_0_3" trav_time="00:19:11" distance="17000.0">link_6_9 link_9_6 link_6_2 link_2_1 link_1_3 link_3_0 link_0_3</route>
			</leg>
			<activity type="home" link="link_0_3" x="-500.0" y="9000.0" >
			</activity>
		</plan>

	</person>

<!-- ====================================================================== -->

	<person id="person_3">
		<attributes>
			<attribute name="employed" class="java.lang.Boolean" >false</attribute>
		</attributes>
		<plan score="123.21552876224919" selected="no">
			<activity type="home" link="link_0_3" x="-500.0" y="9000.0" end_time="08:00:03" >
			</activity>
			<leg mode="car">
				<route type="links" start_link="link_0_3" end_link="link_6_9" trav_time="00:33:07" distance="28600.0">link_0_3 link_3_4 link_4_5 link_5_6 link_6_9</route>
			</leg>
			<activity type="work" link="link_6_9" x="10500.0" y="9000.0" end_time="16:00:01" >
			</activity>
			<leg mode="car">
				<route type="links" start_link="link_6_9" end_link="link_0_3" trav_time="00:19:11" distance="17000.0">link_6_9 link_9_6 link_6_2 link_2_1 link_1_3 link_3_0 link_0_3</route>
			</leg>
			<activity type="home" link="link_0_3" x="-500.0" y="9000.0" >
			</activity>
		</plan>

		<plan score="126.29509987168112" selected="yes">
			<activity type="home" link="link_0_3" x="-500.0" y="9000.0" end_time="06:12:04" >
			</activity>
			<leg mode="car">
				<route type="links" start_link="link_0_3" end_link="link_6_9" trav_time="00:33:07" distance="28600.0">link_0_3 link_3_4 link_4_5 link_5_6 link_6_9</route>
			</leg>
			<activity type="work" link="link_6_9" x="10500.0" y="9000.0" end_time="17:16:16" >
			</activity>
			<leg mode="car">
				<route type="links" start_link="link_6_9" end_link="link_0_3" trav_time="00:19:11" distance="17000.0">link_6_9 link_9_6 link_6_2 link_2_1 link_1_3 link_3_0 link_0_3</route>
			</leg>
			<activity type="home" link="link_0_3" x="-500.0" y="9000.0" >
			</activity>
		</plan>

	</person>

<!-- ====================================================================== -->

	<person id="person_4">
		<attributes>
			<attribute name="employed" class="java.lang.Boolean" >false</attribute>
		</attributes>
		<plan score="123.22141637399913" selected="yes">
			<activity type="home" link="link_0_3" x="-500.0" y="9000.0" end_time="08:00:04" >
			</activity>
			<leg mode="car">
				<route type="links" start_link="link_0_3" end_link="link_6_9" trav_time="00:33:07" distance="28600.0">link_0_3 link_3_4 link_4_5 link_5_6 link_6_9</route>
			</leg>
			<activity type="work" link="link_6_9" x="10500.0" y="9000.0" end_time="16:00:01" >
			</activity>
			<leg mode="car">
				<route type="links" start_link="link_6_9" end_link="link_0_3" trav_time="00:19:11" distance="17000.0">link_6_9 link_9_6 link_6_2 link_2_1 link_1_3 link_3_0 link_0_3</route>
			</leg>
			<activity type="home" link="link_0_3" x="-500.0" y="9000.0" >
			</activity>
		</plan>

	</person>

<!-- ====================================================================== -->

	<person id="person_5">
		<attributes>
			<attribute name="employed" class="java.lang.Boolean" >false</attribute>
		</attributes>
		<plan score="123.15057888737077" selected="no">
			<activity type="home" link="link_0_3" x="-500.0" y="9000.0" end_time="08:00:05" >
			</activity>
			<leg mode="car">
				<route type="links" start_link="link_0_3" end_link="link_6_9" trav_time="00:33:07" distance="28600.0">link_0_3 link_3_4 link_4_5 link_5_6 link_6_9</route>
			</leg>
			<activity type="work" link="link_6_9" x="10500.0" y="9000.0" end_time="16:00:01" >
			</activity>
			<leg mode="car">
				<route type="links" start_link="link_6_9" end_link="link_0_3" trav_time="00:19:11" distance="17000.0">link_6_9 link_9_6 link_6_2 link_2_1 link_1_3 link_3_0 link_0_3</route>
			</leg>
			<activity type="home" link="link_0_3" x="-500.0" y="9000.0" >
			</activity>
		</plan>

		<plan score="121.88340648226817" selected="yes">
			<activity type="home" link="link_0_3" x="-500.0" y="9000.0" end_time="09:56:59" >
			</activity>
			<leg mode="car">
				<route type="links" start_link="link_0_3" end_link="link_6_9" trav_time="00:33:07" distance="28600.0">link_0_3 link_3_4 link_4_5 link_5_6 link_6_9</route>
			</leg>
			<activity type="work" link="link_6_9" x="10500.0" y="9000.0" end_time="17:28:02" >
			</activity>
			<leg mode="car">
				<route type="links" start_link="link_6_9" end_link="link_0_3" trav_time="00:19:11" distance="17000.0">link_6_9 link_9_6 link_6_2 link_2_1 link_1_3 link_3_0 link_0_3</route>
			</leg>
			<activity type="home" link="link_0_3" x="-500.0" y="9000.0" >
			</activity>
		</plan>

	</person>

<!-- ====================================================================== -->

	<person id="person_6">
		<attributes>
			<attribute name="employed" class="java.lang.Boolean" >false</attribute>
		</attributes>
		<plan score="123.193360779583" selected="yes">
			<activity type="home" link="link_0_3" x="-500.0" y="9000.0" end_time="08:00:06" >
			</activity>
			<leg mode="car">
				<route type="links" start_link="link_0_3" end_link="link_6_9" trav_time="00:33:07" distance="28600.0">link_0_3 link_3_4 link_4_5 link_5_6 link_6_9</route>
			</leg>
			<activity type="work" link="link_6_9" x="10500.0" y="9000.0" end_time="16:00:01" >
			</activity>
			<leg mode="car">
				<route type="links" start_link="link_6_9" end_link="link_0_3" trav_time="00:19:11" distance="17000.0">link_6_9 link_9_6 link_6_2 link_2_1 link_1_3 link_3_0 link_0_3</route>
			</leg>
			<activity type="home" link="link_0_3" x="-500.0" y="9000.0" >
			</activity>
		</plan>

	</person>

<!-- ====================================================================== -->

	<person id="person_7">
		<attributes>
			<attribute name="employed" class="java.lang.Boolean" >false</attribute>
		</attributes>
		<plan score="123.15941006714446" selected="yes">
			<activity type="home" link="link_0_3" x="-500.0" y="9000.0" end_time="08:00:07" >
			</activity>
			<leg mode="car">
				<route type="links" start_link="link_0_3" end_link="link_6_9" trav_time="00:33:07" distance="28600.0">link_0_3 link_3_4 link_4_5 link_5_6 link_6_9</route>
			</leg>
			<activity type="work" link="link_6_9" x="10500.0" y="9000.0" end_time="16:00:01" >
			</activity>
			<leg mode="car">
				<route type="links" start_link="link_6_9" end_link="link_0_3" trav_time="00:19:11" distance="17000.0">link_6_9 link_9_6 link_6_2 link_2_1 link_1_3 link_3_0 link_0_3</route>
			</leg>
			<activity type="home" link="link_0_3" x="-500.0" y="9000.0" >
			</activity>
		</plan>

	</person>

<!-- ====================================================================== -->

	<person id="person_8">
		<attributes>
			<attribute name="employed" class="java.lang.Boolean" >false</attribute>
		</attributes>
		<plan score="123.12839541078628" selected="yes">
			<activity type="home" link="link_0_3" x="-500.0" y="9000.0" end_time="08:00:08" >
			</activity>
			<leg mode="car">
				<route type="links" start_link="link_0_3" end_link="link_6_9" trav_time="00:33:07" distance="28600.0">link_0_3 link_3_4 link_4_5 link_5_6 link_6_9</route>
			</leg>
			<activity type="work" link="link_6_9" x="10500.0" y="9000.0" end_time="16:00:01" >
			</activity>
			<leg mode="car">
				<route type="links" start_link="link_6_9" end_link="link_0_3" trav_time="00:19:11" distance="17000.0">link_6_9 link_9_6 link_6_2 link_2_1 link_1_3 link_3_0 link_0_3</route>
			</leg>
			<activity type="home" link="link_0_3" x="-500.0" y="9000.0" >
			</activity>
		</plan>

	</person>

<!-- ====================================================================== -->

	<person id="person_9">
		<attributes>
			<attribute name="employed" class="java.lang.Boolean" >false</attribute>
		</attributes>
		<plan score="123.09442946489564" selected="yes">
			<activity type="home" link="link_0_3" x="-500.0" y="9000.0" end_time="08:00:09" >
			</activity>
			<leg mode="car">
				<route type="links" start_link="link_0_3" end_link="link_6_9" trav_time="00:33:07" distance="28600.0">link_0_3 link_3_4 link_4_5 link_5_6 link_6_9</route>
			</leg>
			<activity type="work" link="link_6_9" x="10500.0" y="9000.0" end_time="16:00:01" >
			</activity>
			<leg mode="car">
				<route type="links" start_link="link_6_9" end_link="link_0_3" trav_time="00:19:11" distance="17000.0">link_6_9 link_9_6 link_6_2 link_2_1 link_1_3 link_3_0 link_0_3</route>
			</leg>
			<activity type="home" link="link_0_3" x="-500.0" y="9000.0" >
			</activity>
		</plan>

	</person>

<!-- ====================================================================== -->

</population>
