2012-03-29 19:56:25,526  INFO Gbl:53 JVM: 1.6.0_29; Apple Inc.; mixed mode; 64-bit
2012-03-29 19:56:25,527  INFO Gbl:57 OS: Mac OS X; 10.7.3; x86_64
2012-03-29 19:56:25,527  INFO Gbl:60 CPU cores: 8
2012-03-29 19:56:25,527  INFO Gbl:61 max. Memory: 123.9375MB (129957888B)
2012-03-29 19:56:25,528  INFO Gbl:89 MATSim-Build: runknown (2012-03-29 19:46:07)
2012-03-29 19:56:25,528  INFO Controler:336 Used Controler-Class: org.matsim.core.controler.Controler
2012-03-29 19:56:25,532  INFO Controler:730 Complete config dump after reading the config file:
2012-03-29 19:56:25,537  INFO Controler:734 

<?xml version="1.0" encoding="UTF-8"?>
<!DOCTYPE config SYSTEM "http://www.matsim.org/files/dtd/config_v1.dtd">
<config>

<!-- ====================================================================== -->

	<module name="controler" >
		<param name="enableLinkToLinkRouting" value="false" />

		<!-- Specifies the file format for writing events. Currently supported: txt, xml. Multiple values can be specified separated by commas (','). -->
		<param name="eventsFileFormat" value="xml" />
		<param name="firstIteration" value="0" />
		<param name="lastIteration" value="2" />

		<!-- Defines which mobility simulation will be used. Currently supported: queueSimulation, qsim, jdeqsim, multimodalQSim -->
		<param name="mobsim" value="queueSimulation" />
		<param name="outputDirectory" value="./output/equil" />

		<!-- The type of routing (least cost path) algorithm used, may have the values: Dijkstra, FastDijkstra, AStarLandmarks or FastAStarLandmarks -->
		<param name="routingAlgorithmType" value="Dijkstra" />

		<!-- An identifier for the current run which is used as prefix for output files and mentioned in output xml files etc. -->
		<param name="runId" value="null" />

		<!-- Comma-separated list of visualizer output file formats. `transims', `googleearth', and `otfvis'. -->
		<param name="snapshotFormat" value="otfvis" />

		<!-- iterationNumber % writeEventsInterval == 0 defines in which iterations events are written to a file. `0' disables events writing completely. -->
		<param name="writeEventsInterval" value="0" />

		<!-- iterationNumber % writePlansInterval == 0 defines (hopefully) in which iterations plans are written to a file. `0' disables plans writing completely.  Some plans in early iterations are always written -->
		<param name="writePlansInterval" value="0" />

		<!-- iterationNumber % writeSnapshotsInterval == 0 defines in which iterations snapshots are written to a file. `0' disables snapshots writing completely -->
		<param name="writeSnapshotsInterval" value="1" />
	</module>

<!-- ====================================================================== -->

	<module name="counts" >

		<!-- Specifies over how many iterations the link volumes should be averaged that are used for the counts comparison. Use 1 or 0 to only use the link volumes of a single iteration. This values cannot be larger than the value specified for writeCountsInterval -->
		<param name="averageCountsOverIterations" value="5" />

		<!-- factor by which to re-scale the simulated values.  necessary when simulation runs with something different from 100%.  needs to be adapted manually -->
		<param name="countsScaleFactor" value="1.0" />

		<!-- distance to distanceFilterCenterNode to include counting stations. The unit of distance is the Euclidean distance implied by the coordinate system -->
		<param name="distanceFilter" value="null" />

		<!-- node id for center node of distance filter -->
		<param name="distanceFilterCenterNode" value="null" />

		<!-- input file name to counts package -->
		<param name="inputCountsFile" value="null" />

		<!-- possible values: `html', `kml', `txt', `all' -->
		<param name="outputformat" value="null" />

		<!-- Specifies how often the counts comparison should be calculated and written. -->
		<param name="writeCountsInterval" value="10" />
	</module>

<!-- ====================================================================== -->

	<module name="facilities" >
		<param name="inputFacilitiesFile" value="test/scenarios/equil/facilities.xml" />
	</module>

<!-- ====================================================================== -->

	<module name="global" >
		<param name="coordinateSystem" value="Atlantis" />
		<param name="numberOfThreads" value="2" />
		<param name="randomSeed" value="4711" />
	</module>

<!-- ====================================================================== -->

	<module name="households" >
		<param name="inputFile" value="null" />
	</module>

<!-- ====================================================================== -->

	<module name="linkStats" >

		<!-- Specifies over how many iterations the link volumes should be averaged that are used for the link statistics. Use 1 or 0 to only use the link volumes of a single iteration. This values cannot be larger than the value specified for writeLinkStatsInterval -->
		<param name="averageLinkStatsOverIterations" value="5" />

		<!-- Specifies how often the link stats should be calculated and written. Use 0 to disable the generation of link stats. -->
		<param name="writeLinkStatsInterval" value="10" />
	</module>

<!-- ====================================================================== -->

	<module name="locationchoice" >
		<param name="algorithm" value="null" />
		<param name="analysisBinSize" value="20000.0" />
		<param name="analysisBoundary" value="200000.0" />
		<param name="centerNode" value="null" />
		<param name="destinationSamplePercent" value="100.0" />
		<param name="epsilonDistribution" value="gumbel" />
		<param name="epsilonScaleFactors" value="null" />
		<param name="fkValuesFile" value="null" />
		<param name="flexible_types" value="null" />
		<param name="idExclusion" value="2147483647" />
		<param name="maxDistanceEpsilon" value="-1.0" />
		<param name="maxEpsFile" value="null" />
		<param name="maxRecursions" value="1" />
		<param name="pkValuesFile" value="null" />
		<param name="planSelector" value="SelectExpBeta" />
		<param name="probChoiceExponent" value="3" />
		<param name="probChoiceSetSize" value="10" />
		<param name="radius" value="null" />
		<param name="randomSeed" value="221177" />
		<param name="recursionTravelSpeed" value="8.5" />
		<param name="recursionTravelSpeedChange" value="0.1" />
		<param name="restraintFcnExp" value="0.0" />
		<param name="restraintFcnFactor" value="0.0" />
		<param name="scaleFactor" value="1" />
		<param name="tt_approximationLevel" value="0" />
	</module>

<!-- ====================================================================== -->

	<module name="multimodal" >

		<!-- Use this, if your network is not multi modal. Links with free speeds that are lower than the specified cutoff value will be usable for walk and bike trips. -->
		<param name="createMultiModalNetwork" value="false" />

		<!-- Only used, if createMultiModalNetwork is enabled (set value in m/s). -->
		<param name="cuttoffValueForNonCarModes" value="22.22222222222222" />
		<param name="dropNonCarRoutes" value="false" />
		<param name="multiModalSimulationEnabled" value="false" />

		<!-- Use number of threads > 1 for parallel version using the specified number of threads. -->
		<param name="numberOfThreads" value="1" />
		<param name="simulatedModes" value="pt,walk,ride,bike" />
	</module>

<!-- ====================================================================== -->

	<module name="network" >
		<param name="inputChangeEventsFile" value="null" />
		<param name="inputNetworkFile" value="test/scenarios/equil/network.xml" />
		<param name="laneDefinitionsFile" value="null" />
		<param name="timeVariantNetwork" value="false" />
	</module>

<!-- ====================================================================== -->

	<module name="otfvis" >

		<!-- The (initial) size of the agents.  Only a range of numbers is allowed, otherwise otfvis aborts rather ungracefully, or displays no agents at all. -->
		<param name="agentSize" value="120.0" />

		<!-- coloring scheme for otfvis.  Currently (2012) allowed values:null standard bvg bvg2 byId -->
		<param name="coloringScheme" value="standard" />
		<param name="leftMouseFunc" value="Zoom" />

		<!-- The (initial) width of the links of the network. Use positive floating point values. -->
		<param name="linkWidth" value="30.0" />

		<!-- Link width is proportional to `numberOfLanes' or to `capacity'. -->
		<param name="linkwidthIsProportionalTo" value="numberOfLanes" />

		<!-- Render everything on top of OpenStreetMap tiles. -->
		<param name="mapOverlayMode" value="false" />
		<param name="middleMouseFunc" value="Pan" />

		<!-- Shortens a link's start and end point in the visualization.  -->
		<param name="nodeOffset" value="0.0" />
		<param name="rightMouseFunc" value="Select" />
		<param name="showTeleportation" value="false" />
	</module>

<!-- ====================================================================== -->

	<module name="planCalcScore" >

		<!-- [1/utils] conversion factor of utility model for use in logit-based choice model.  Set to 1 if your utl function is estimated -->
		<param name="BrainExpBeta" value="2.0" />
		<param name="PathSizeLogitBeta" value="1.0" />
		<param name="activityClosingTime_0" value="undefined" />
		<param name="activityClosingTime_1" value="18:00:00" />
		<param name="activityEarliestEndTime_0" value="undefined" />
		<param name="activityEarliestEndTime_1" value="undefined" />
		<param name="activityLatestStartTime_0" value="undefined" />
		<param name="activityLatestStartTime_1" value="09:00:00" />
		<param name="activityMinimalDuration_0" value="08:00:00" />
		<param name="activityMinimalDuration_1" value="06:00:00" />
		<param name="activityOpeningTime_0" value="undefined" />
		<param name="activityOpeningTime_1" value="07:00:00" />
		<param name="activityPriority_0" value="1.0" />
		<param name="activityPriority_1" value="1.0" />
		<param name="activityType_0" value="h" />
		<param name="activityType_1" value="w" />
		<param name="activityTypicalDuration_0" value="12:00:00" />
		<param name="activityTypicalDuration_1" value="08:00:00" />

		<!-- [utils] alternative-specific constant for bike.  no guarantee that this is used anywhere. default=0 to be backwards compatible for the time being -->
		<param name="constantBike" value="0.0" />

		<!-- [utils] alternative-specific constant for car.  no guarantee that this is used anywhere. default=0 to be backwards compatible for the time being -->
		<param name="constantCar" value="0.0" />
		<param name="constantOther" value="0.0" />

		<!-- [utils] alternative-specific constant for pt.  no guarantee that this is used anywhere. default=0 to be backwards compatible for the time being -->
		<param name="constantPt" value="0.0" />

		<!-- [utils] alternative-specific constant for walk.  no guarantee that this is used anywhere. default=0 to be backwards compatible for the time being -->
		<param name="constantWalk" value="0.0" />

		<!-- [utils/hr] utility for departing early (i.e. before the earliest end time).  Probably implemented correctly, but not tested. -->
		<param name="earlyDeparture" value="-0.0" />

		<!-- [utils/hr] utility for arriving late (i.e. after the latest start time).  normally negative -->
		<param name="lateArrival" value="-18.0" />

		<!-- new_score = (1-learningRate)*old_score + learningRate * score_from_mobsim.  learning rates close to zero emulate score averaging, but slow down initial convergence -->
		<param name="learningRate" value="1.0" />

		<!-- [utils/unit_of_money] conversion of money (e.g. toll, distance cost) into utils -->
		<param name="marginalUtilityOfMoney" value="1.0" />
		<param name="marginalUtlOfDistanceOther" value="0.0" />

		<!-- DISCOURAGED! [utils/m] utility of walking per m, normally negative.  this is on top of the time (dis)utility.  It is discouraged to use this but in some cases it may make sense. -->
		<param name="marginalUtlOfDistanceWalk" value="0.0" />

		<!-- [unit_of_money/m] conversion of car distance into money. Probably needs to be negative to work. -->
		<param name="monetaryDistanceCostRateCar" value="0.0" />

		<!-- [unit_of_money/m] conversion of pt distance into money. Probably needs to be negative to work. -->
		<param name="monetaryDistanceCostRatePt" value="0.0" />

		<!-- [utils/hr] marginal utility of doing an activity.  normally positive.  also the opportunity cost of time if agent is doing nothing. -->
		<param name="performing" value="6.0" />

		<!-- [utils/hr] additional marginal utility of traveling by car.  normally negative.  this comes on top of the opportunity cost of time -->
		<param name="traveling" value="-6.0" />
		<param name="travelingBike" value="-6.0" />
		<param name="travelingOther" value="-6.0" />

		<!-- [utils/hr] additional marginal utility offset of traveling by pt.  normally negative.  this comes on top of the opportunity cost of time -->
		<param name="travelingPt" value="-6.0" />

		<!-- [utils/hr] additional marginal utility offset of traveling by foot.  normally negative.  this comes on top of the opportunity cost of time.  also see marginalUtlOfDistanceWalk -->
		<param name="travelingWalk" value="-6.0" />

		<!-- [utils] utility of switching a line (= transfer penalty).  Normally negative -->
		<param name="utilityOfLineSwitch" value="-1.0" />

		<!-- [utils/hr] utility offset for waiting.  this comes on top of the opportunity cost of time.  Probably implemented correctly, but not tested. -->
		<param name="waiting" value="-0.0" />
	</module>

<!-- ====================================================================== -->

	<module name="planomat" >
		<param name="doLogging" value="false" />
		<param name="jgapMaxGenerations" value="100" />
		<param name="levelOfTimeResolution" value="7" />
		<param name="populationSize" value="-2147483648" />
		<param name="possibleModes" value="" />
		<param name="routingCapability" value="fixedRoute" />
		<param name="simLegInterpretation" value="CetinCompatible" />
		<param name="tripStructureAnalysisLayer" value="facility" />
	</module>

<!-- ====================================================================== -->

	<module name="plans" >
		<param name="inputPlansFile" value="test/scenarios/equil/plans1.xml" />

		<!-- Defines how routes are stored in memory. Currently supported: LinkNetworkRoute, CompressedNetworkRoute. -->
		<param name="networkRouteType" value="LinkNetworkRoute" />
	</module>

<!-- ====================================================================== -->

	<module name="planscalcroute" >

		<!-- factor with which beeline distances (and therefore times) are multiplied in order to obtain an estimate of the network distances/times.  Default is something like 1.3 -->
		<param name="beelineDistanceFactor" value="1.3" />

		<!-- All the modes for which the router is supposed to generate network routes (like car) -->
		<param name="networkModes" value="car,ride" />

		<!-- Free-speed factor for a teleported mode based on freespeed: freespeedFactor * <freespeed car travel time>. Insert a line like this for every such mode. -->
		<param name="teleportedModeFreespeedFactor_pt" value="2.0" />

		<!-- Speed for a teleported mode based on beeline-distance: (<beeline distance> * beelineDistanceFactor) / speed. Insert a line like this for every such mode. -->
		<param name="teleportedModeSpeed_bike" value="4.166666666666667" />

		<!-- Speed for a teleported mode based on beeline-distance: (<beeline distance> * beelineDistanceFactor) / speed. Insert a line like this for every such mode. -->
		<param name="teleportedModeSpeed_undefined" value="13.88888888888889" />

		<!-- Speed for a teleported mode based on beeline-distance: (<beeline distance> * beelineDistanceFactor) / speed. Insert a line like this for every such mode. -->
		<param name="teleportedModeSpeed_walk" value="0.8333333333333333" />
	</module>

<!-- ====================================================================== -->

	<module name="ptCounts" >

		<!-- factor by which to re-scale the simulated values.  necessary when simulation runs with something different from 100%.  needs to be adapted manually -->
		<param name="countsScaleFactor" value="1.0" />

		<!-- distance to distanceFilterCenterNode to include counting stations. The unit of distance is the Euclidean distance implied by the coordinate system -->
		<param name="distanceFilter" value="null" />

		<!-- node id for center node of distance filter -->
		<param name="distanceFilterCenterNode" value="null" />

		<!-- input file containing the alighting (getting off) counts for pt -->
		<param name="inputAlightCountsFile" value="null" />

		<!-- input file containing the boarding (getting on) counts for pt -->
		<param name="inputBoardCountsFile" value="null" />

		<!-- input file containing the occupancy counts for pt -->
		<param name="inputOccupancyCountsFile" value="null" />

		<!-- possible values: `html', `kml', `txt', `all' -->
		<param name="outputformat" value="null" />

		<!-- every how many iterations (starting with 0) counts comparisons are generated -->
		<param name="ptCountsInterval" value="10" />
	</module>

<!-- ====================================================================== -->

	<module name="roadpricing" >
	</module>

<!-- ====================================================================== -->

	<module name="scenario" >

		<!-- Set this parameter to true if households should be used, false if not. -->
		<param name="useHouseholds" value="false" />

		<!-- Set this parameter to true if knowledge should be used, false if not. -->
		<param name="useKnowledge" value="true" />

		<!-- Set this parameter to true if lanes should be used, false if not. -->
		<param name="useLanes" value="false" />

		<!-- Set this parameter to true if roadpricing should be used, false if not. -->
		<param name="useRoadpricing" value="false" />

		<!-- Set this parameter to true if signal systems should be used, false if not. -->
		<param name="useSignalsystems" value="false" />

		<!-- Set this parameter to true if transit should be simulated, false if not. -->
		<param name="useTransit" value="false" />

		<!-- Set this parameter to true if vehicles should be used, false if not. -->
		<param name="useVehicles" value="false" />
	</module>

<!-- ====================================================================== -->

	<module name="signalsystems" >
		<param name="ambertimes" value="null" />
		<param name="intergreentimes" value="null" />
		<param name="signalcontrol" value="null" />
		<param name="signalgroups" value="null" />
		<param name="signalsystems" value="null" />
		<param name="useAmbertimes" value="false" />
		<param name="useIntergreentimes" value="false" />
	</module>

<!-- ====================================================================== -->

	<module name="simulation" >
		<param name="endTime" value="00:00:00" />
		<param name="flowCapacityFactor" value="1.0" />

		<!-- Boolean. `true': stuck vehicles are removed, aborting the plan; `false': stuck vehicles are forced into the next link. `false' is probably the better choice. -->
		<param name="removeStuckVehicles" value="true" />

		<!-- snapshotStyle: `equiDist' (vehicles equidistant on link) or `queue' (vehicles queued at end of link) -->
		<param name="snapshotStyle" value="equiDist" />
		<param name="snapshotperiod" value="00:10:00" />
		<param name="startTime" value="00:00:00" />
		<param name="storageCapacityFactor" value="1.0" />

		<!-- time in seconds.  Time after which the frontmost vehicle on a link is called `stuck' if it does not move. -->
		<param name="stuckTime" value="100.0" />
		<param name="timeStepSize" value="00:00:01" />
		<param name="timeout" value="3600" />
	</module>

<!-- ====================================================================== -->

	<module name="strategy" >
		<param name="ExternalExeConfigTemplate" value="null" />
		<param name="ExternalExeTimeOut" value="3600" />
		<param name="ExternalExeTmpFileRootDir" value="null" />

		<!-- iteration after which module will be disabled.  most useful for ``innovative'' strategies (new routes, new times, ...) -->
		<param name="ModuleDisableAfterIteration_1" value="null" />

		<!-- iteration after which module will be disabled.  most useful for ``innovative'' strategies (new routes, new times, ...) -->
		<param name="ModuleDisableAfterIteration_2" value="null" />

		<!-- path to external executable (if applicable) -->
		<param name="ModuleExePath_1" value="null" />

		<!-- path to external executable (if applicable) -->
		<param name="ModuleExePath_2" value="null" />

		<!-- probability that a strategy is applied to a given a person.  despite its name, this really is a ``weight'' -->
		<param name="ModuleProbability_1" value="0.9" />

		<!-- probability that a strategy is applied to a given a person.  despite its name, this really is a ``weight'' -->
		<param name="ModuleProbability_2" value="0.1" />

		<!-- name of strategy (if not full class name, resolved in StrategyManagerConfigLoader) -->
		<param name="Module_1" value="BestScore" />

		<!-- name of strategy (if not full class name, resolved in StrategyManagerConfigLoader) -->
		<param name="Module_2" value="ReRoute" />

		<!-- maximum number of plans per agent.  ``0'' means ``infinity''.  Currently (2010), ``5'' is a good number -->
		<param name="maxAgentPlanMemorySize" value="5" />

		<!-- name of PlanSelector for plans removal.  If not full class name, resolved in StrategyManagerConfigLoader.  default is `null', which eventually calls SelectWorstPlan. This is not a good choice from a discrete choice theoretical perspective. Alternatives, however, have not been systematically tested. kai, feb'12 -->
		<param name="planSelectorForRemoval" value="null" />
	</module>

<!-- ====================================================================== -->

	<module name="transit" >

		<!-- Comma-separated list of transportation modes that are handled as transit. Defaults to 'pt,bus,train,tram'. -->
		<param name="transitModes" value="pt" />

		<!-- Input file containing the transit schedule to be simulated. -->
		<param name="transitScheduleFile" value="null" />

		<!-- Input file containing the vehicles used by the departures in the transit schedule. -->
		<param name="vehiclesFile" value="null" />
	</module>

<!-- ====================================================================== -->

	<module name="transitRouter" >

		<!-- additional time the router allocates when a line switch happens, Can be interpreted as a 'savity' time that agents need to savely transfer from one line to another -->
		<param name="additionalTransferTime" value="0.0" />

		<!-- step size to increase searchRadius if no stops are found -->
		<param name="extensionRadius" value="200.0" />

		<!-- maximum beeline distance between stops that agents could transfer to by walking -->
		<param name="maxBeelineWalkConnectionDistance" value="100.0" />

		<!-- the radius in which stop locations are searched, given a start or target coordinate -->
		<param name="searchRadius" value="1000.0" />
	</module>

<!-- ====================================================================== -->

	<module name="travelTimeCalculator" >

		<!-- Transport modes that will be respected by the travel time collector. 'car' is default, which includes also bussed from the pt simulation module. Use this parameter in combination with 'filterModes' = true! -->
		<param name="analyzedModes" value="car" />
		<param name="calculateLinkToLinkTravelTimes" value="false" />
		<param name="calculateLinkTravelTimes" value="true" />

		<!-- If true, link travel times from legs performed on modes not included in the 'analyzedModes' parameter are ignored. -->
		<param name="filterModes" value="false" />

		<!-- How to deal with congested time bins that have no link entry events. `optimistic' assumes free speed (too optimistic); 'experimental_LastMile' is experimental and probably too pessimistic. -->
		<param name="travelTimeAggregator" value="optimistic" />

		<!-- The size of the time bin (in sec) into which the link travel times are aggregated for the router -->
		<param name="travelTimeBinSize" value="900" />
		<param name="travelTimeCalculator" value="TravelTimeCalculatorArray" />

		<!-- How to deal with link entry times at different positions during the time bin. Currently supported: average, linearinterpolation -->
		<param name="travelTimeGetter" value="average" />
	</module>

<!-- ====================================================================== -->

	<module name="vspExperimental" >

		<!-- String: minOfDurationAndEndTime', 'tryEndTimeThenDuration', 'endTimeOnly' -->
		<param name="activityDurationInterpretation" value="minOfDurationAndEndTime" />

		<!-- REQUIRED: file with HBEFA 3.1 fleet average cold emission factors -->
		<param name="averageFleetColdEmissionFactorsFile" value="null" />

		<!-- REQUIRED: file with HBEFA 3.1 fleet average warm emission factors -->
		<param name="averageFleetWarmEmissionFactorsFile" value="null" />

		<!-- (do not use) set chainBasedModes for subTourModeChoice by Yu. E.g. "car,bike", "car" -->
		<param name="chainBasedModes" value="car" />

		<!-- coloring scheme for otfvis.  Currently (2010) allowed values: ``standard'', ``bvg'' -->
		<param name="coloring" value="standard" />

		<!-- OPTIONAL: file with HBEFA 3.1 detailed cold emission factors -->
		<param name="detailedColdEmissionFactorsFile" value="null" />

		<!-- OPTIONAL: file with HBEFA 3.1 detailed warm emission factors -->
		<param name="detailedWarmEmissionFactorsFile" value="null" />

		<!-- REQUIRED: mapping from input road types to HBEFA 3.1 road type strings -->
		<param name="emissionRoadTypeMappingFile" value="null" />

		<!-- definition of a vehicle for every person (who is allowed to choose a vehicle in the simulation):
 - REQUIRED: vehicle type Id must start with the respective HbefaVehicleCategory followed by `;'
 - OPTIONAL: if detailed emission calculation is switched on, vehicle type Id should aditionally contain HbefaVehicleAttributes (`Technology;SizeClasse;EmConcept'), corresponding to the strings in detailedWarmEmissionFactorsFile -->
		<param name="emissionVehicleFile" value="null" />

		<!-- Set this filename of MZ05 daily analysis -->
		<param name="inputMZ05File" value="" />

		<!-- changes MATSim's global time format used in output files. Can be used to enforce writing fractional seconds e.g. in output_plans.  default is `hh:mm:ss' (because of backwards compatibility). see Time.java for possible formats -->
		<param name="matsimGlobalTimeformat" value="HH:mm:ss" />

		<!-- (do not use) set the traffic mode option for subTourModeChoice by Yu -->
		<param name="modes" value="car, pt" />

		<!-- (not yet implemented) will remove plan attributes that are presumably not used, such as activityStartTime. default=false -->
		<param name="removingUnnecessaryPlanAttributes" value="false" />

		<!-- if true then detailed emission factor files must be provided! -->
		<param name="usingDetailedEmissionCalculation" value="false" />

		<!-- indicates if, for routing, the opportunity cost of time should be added to the mode-specific marginal utilities of time.
		Default is false although some of us (bk, kn) think this should always be true.
		This is only a suggestion since there is (by matsim design) no way to enforce that mental modules obey this. -->
		<param name="usingOpportunityCostOfTimeForPtRouting" value="false" />

		<!-- Options: `ignore', `warn', `abort'.  Default: either `ignore' or `warn'.
		When violating VSP defaults, this results in nothing, warnings, or aborts.  Members of VSP should use `abort' or talk to kai. -->
		<param name="vspDefaultsCheckingLevel" value="ignore" />

		<!-- if true then writes output_events in output directory.  default is `false'. Will only work when lastIteration is multiple of events writing interval -->
		<param name="writingOutputEvents" value="false" />
	</module>

<!-- ====================================================================== -->

</config>

2012-03-29 19:56:25,550  INFO Controler:735 Complete config dump done.
2012-03-29 19:56:25,550  INFO Controler:736 Checking consistency of config...
2012-03-29 19:56:25,550  INFO VspExperimentalConfigGroup:338 entering checkVspDefaults ...
2012-03-29 19:56:25,551  INFO VspExperimentalConfigGroup:362 leaving checkVspDefaults ...
2012-03-29 19:56:25,551  INFO Controler:738 Checking consistency of config done.
2012-03-29 19:56:25,589  INFO ScenarioLoaderImpl:134 loading scenario from base directory: /Users/zilske/Documents/contrib-git/otfvis/
2012-03-29 19:56:25,589  INFO ScenarioLoaderImpl:168 loading network from test/scenarios/equil/network.xml
2012-03-29 19:56:25,591  INFO MatsimNetworkReader:83 using network_v1-reader.
2012-03-29 19:56:25,591  INFO MatsimXmlParser:215 Trying to load http://www.matsim.org/files/dtd/network_v1.dtd. In some cases (e.g. network interface up but no connection), this may take a bit.
2012-03-29 19:56:25,621  WARN NetworkImpl:174 org.matsim.core.network.NetworkImpl@7df44ec7[capperiod=3600.0][nof_nodes=15][effectiveLaneWidth=3.75 already set. Will be overwritten with 3.75]
2012-03-29 19:56:25,628  INFO ScenarioLoaderImpl:196 loading facilities from test/scenarios/equil/facilities.xml
2012-03-29 19:56:25,631  INFO MatsimFacilitiesReader:98 using facilities_v1-reader.
2012-03-29 19:56:25,631  INFO MatsimXmlParser:215 Trying to load http://www.matsim.org/files/dtd/facilities_v1.dtd. In some cases (e.g. network interface up but no connection), this may take a bit.
2012-03-29 19:56:25,657  INFO ActivityFacilitiesImpl:111     facility # 1
2012-03-29 19:56:25,658  INFO ActivityFacilitiesImpl:111     facility # 2
2012-03-29 19:56:25,659  INFO ActivityFacilitiesImpl:111     facility # 4
2012-03-29 19:56:25,660  INFO ActivityFacilitiesImpl:111     facility # 8
2012-03-29 19:56:25,662  INFO ActivityFacilitiesImpl:111     facility # 16
2012-03-29 19:56:25,664  INFO ActivityFacilitiesImpl:111     facility # 23
2012-03-29 19:56:25,664  INFO ScenarioLoaderImpl:220 loading population from test/scenarios/equil/plans1.xml
2012-03-29 19:56:25,673  INFO MatsimPopulationReader:83 using plans_v4-reader.
2012-03-29 19:56:25,673  INFO MatsimXmlParser:215 Trying to load http://www.matsim.org/files/dtd/plans_v4.dtd. In some cases (e.g. network interface up but no connection), this may take a bit.
2012-03-29 19:56:25,719  INFO ParallelPopulationReaderMatsimV4:124 Start parallel population reading...
2012-03-29 19:56:25,721  INFO PopulationImpl:173  person # 1
2012-03-29 19:56:25,730  INFO ParallelPopulationReaderMatsimV4:179 Finished parallel population reading...
2012-03-29 19:56:25,731  INFO PopulationImpl:173  person # 1
2012-03-29 19:56:25,735  WARN TravelTimeAndDistanceBasedTravelDisutility:55 Assuming that monetary distance cost rate care is NEGATIVE!!  This may be changed.
2012-03-29 19:56:25,736  INFO EventsManagerImpl:154 adding Event-Handler: org.matsim.core.trafficmonitoring.TravelTimeCalculator
2012-03-29 19:56:25,736  INFO EventsManagerImpl:158   org.matsim.core.router.util.PersonalizableTravelTime
2012-03-29 19:56:25,736  INFO EventsManagerImpl:158   org.matsim.core.router.util.PersonalizableLinkToLinkTravelTime
2012-03-29 19:56:25,736  INFO EventsManagerImpl:158   org.matsim.core.api.experimental.events.handler.LinkEnterEventHandler
2012-03-29 19:56:25,737  INFO EventsManagerImpl:235     > org.matsim.core.api.experimental.events.LinkEnterEvent
2012-03-29 19:56:25,737  INFO EventsManagerImpl:158   org.matsim.core.api.experimental.events.handler.LinkLeaveEventHandler
2012-03-29 19:56:25,737  INFO EventsManagerImpl:235     > org.matsim.core.api.experimental.events.LinkLeaveEvent
2012-03-29 19:56:25,738  INFO EventsManagerImpl:158   org.matsim.core.api.experimental.events.handler.AgentDepartureEventHandler
2012-03-29 19:56:25,738  INFO EventsManagerImpl:235     > org.matsim.core.api.experimental.events.AgentDepartureEvent
2012-03-29 19:56:25,738  INFO EventsManagerImpl:158   org.matsim.core.api.experimental.events.handler.AgentArrivalEventHandler
2012-03-29 19:56:25,738  INFO EventsManagerImpl:235     > org.matsim.core.api.experimental.events.AgentArrivalEvent
2012-03-29 19:56:25,739  INFO EventsManagerImpl:158   org.matsim.core.events.handler.VehicleArrivesAtFacilityEventHandler
2012-03-29 19:56:25,739  INFO EventsManagerImpl:235     > org.matsim.core.events.VehicleArrivesAtFacilityEvent
2012-03-29 19:56:25,739  INFO EventsManagerImpl:158   org.matsim.core.events.handler.TransitDriverStartsEventHandler
2012-03-29 19:56:25,740  INFO EventsManagerImpl:235     > org.matsim.core.events.TransitDriverStartsEvent
2012-03-29 19:56:25,740  INFO EventsManagerImpl:158   org.matsim.core.api.experimental.events.handler.AgentStuckEventHandler
2012-03-29 19:56:25,741  INFO EventsManagerImpl:235     > org.matsim.core.api.experimental.events.AgentStuckEvent
2012-03-29 19:56:25,741  INFO EventsManagerImpl:166 
2012-03-29 19:56:25,743  INFO CalcLinkStats:128  resetting `count' to zero.  This info is here since we want to check when this is happening during normal simulation runs.  kai, jan'11
2012-03-29 19:56:25,744  INFO EventsManagerImpl:154 adding Event-Handler: org.matsim.analysis.VolumesAnalyzer
2012-03-29 19:56:25,744  INFO EventsManagerImpl:158   org.matsim.core.api.experimental.events.handler.LinkLeaveEventHandler
2012-03-29 19:56:25,744  INFO EventsManagerImpl:235     > org.matsim.core.api.experimental.events.LinkLeaveEvent
2012-03-29 19:56:25,744  INFO EventsManagerImpl:166 
2012-03-29 19:56:25,746  INFO EventsManagerImpl:154 adding Event-Handler: org.matsim.analysis.CalcLegTimes
2012-03-29 19:56:25,746  INFO EventsManagerImpl:158   org.matsim.core.api.experimental.events.handler.AgentDepartureEventHandler
2012-03-29 19:56:25,746  INFO EventsManagerImpl:235     > org.matsim.core.api.experimental.events.AgentDepartureEvent
2012-03-29 19:56:25,746  INFO EventsManagerImpl:158   org.matsim.core.api.experimental.events.handler.AgentArrivalEventHandler
2012-03-29 19:56:25,747  INFO EventsManagerImpl:235     > org.matsim.core.api.experimental.events.AgentArrivalEvent
2012-03-29 19:56:25,747  INFO EventsManagerImpl:158   org.matsim.core.api.experimental.events.handler.ActivityEndEventHandler
2012-03-29 19:56:25,747  INFO EventsManagerImpl:235     > org.matsim.core.api.experimental.events.ActivityEndEvent
2012-03-29 19:56:25,747  INFO EventsManagerImpl:158   org.matsim.core.api.experimental.events.handler.ActivityStartEventHandler
2012-03-29 19:56:25,748  INFO EventsManagerImpl:235     > org.matsim.core.api.experimental.events.ActivityStartEvent
2012-03-29 19:56:25,748  INFO EventsManagerImpl:166 
2012-03-29 19:56:25,763  INFO EventsManagerImpl:154 adding Event-Handler: org.matsim.analysis.LegHistogram
2012-03-29 19:56:25,763  INFO EventsManagerImpl:158   org.matsim.core.api.experimental.events.handler.AgentDepartureEventHandler
2012-03-29 19:56:25,764  INFO EventsManagerImpl:235     > org.matsim.core.api.experimental.events.AgentDepartureEvent
2012-03-29 19:56:25,764  INFO EventsManagerImpl:158   org.matsim.core.api.experimental.events.handler.AgentArrivalEventHandler
2012-03-29 19:56:25,764  INFO EventsManagerImpl:235     > org.matsim.core.api.experimental.events.AgentArrivalEvent
2012-03-29 19:56:25,765  INFO EventsManagerImpl:158   org.matsim.core.api.experimental.events.handler.AgentStuckEventHandler
2012-03-29 19:56:25,765  INFO EventsManagerImpl:235     > org.matsim.core.api.experimental.events.AgentStuckEvent
2012-03-29 19:56:25,765  INFO EventsManagerImpl:166 
2012-03-29 19:56:25,768  INFO ControlerListenerManager:120 calling notifyStartup on org.matsim.core.controler.corelisteners.PlansScoring
2012-03-29 19:56:25,771  INFO EventsManagerImpl:154 adding Event-Handler: org.matsim.core.scoring.EventsToScore
2012-03-29 19:56:25,771  INFO EventsManagerImpl:158   org.matsim.core.api.experimental.events.handler.AgentArrivalEventHandler
2012-03-29 19:56:25,772  INFO EventsManagerImpl:235     > org.matsim.core.api.experimental.events.AgentArrivalEvent
2012-03-29 19:56:25,772  INFO EventsManagerImpl:158   org.matsim.core.api.experimental.events.handler.AgentDepartureEventHandler
2012-03-29 19:56:25,772  INFO EventsManagerImpl:235     > org.matsim.core.api.experimental.events.AgentDepartureEvent
2012-03-29 19:56:25,772  INFO EventsManagerImpl:158   org.matsim.core.api.experimental.events.handler.AgentStuckEventHandler
2012-03-29 19:56:25,773  INFO EventsManagerImpl:235     > org.matsim.core.api.experimental.events.AgentStuckEvent
2012-03-29 19:56:25,773  INFO EventsManagerImpl:158   org.matsim.core.api.experimental.events.handler.AgentMoneyEventHandler
2012-03-29 19:56:25,774  INFO EventsManagerImpl:235     > org.matsim.core.api.experimental.events.AgentMoneyEvent
2012-03-29 19:56:25,774  INFO EventsManagerImpl:158   org.matsim.core.api.experimental.events.handler.ActivityStartEventHandler
2012-03-29 19:56:25,774  INFO EventsManagerImpl:235     > org.matsim.core.api.experimental.events.ActivityStartEvent
2012-03-29 19:56:25,775  INFO EventsManagerImpl:158   org.matsim.core.api.experimental.events.handler.ActivityEndEventHandler
2012-03-29 19:56:25,775  INFO EventsManagerImpl:235     > org.matsim.core.api.experimental.events.ActivityEndEvent
2012-03-29 19:56:25,775  INFO EventsManagerImpl:158   org.matsim.core.api.experimental.events.handler.LinkLeaveEventHandler
2012-03-29 19:56:25,776  INFO EventsManagerImpl:235     > org.matsim.core.api.experimental.events.LinkLeaveEvent
2012-03-29 19:56:25,776  INFO EventsManagerImpl:158   org.matsim.core.api.experimental.events.handler.LinkEnterEventHandler
2012-03-29 19:56:25,776  INFO EventsManagerImpl:235     > org.matsim.core.api.experimental.events.LinkEnterEvent
2012-03-29 19:56:25,777  INFO EventsManagerImpl:158   org.matsim.core.events.TravelEventHandler
2012-03-29 19:56:25,778  INFO EventsManagerImpl:235     > org.matsim.core.events.TravelEvent
2012-03-29 19:56:25,778  INFO EventsManagerImpl:166 
2012-03-29 19:56:25,778 DEBUG PlansScoring:52 PlanScoring startup.
2012-03-29 19:56:25,778  INFO ControlerListenerManager:125 calling notifyStartup on org.matsim.analysis.TravelDistanceStats
2012-03-29 19:56:25,779  INFO ControlerListenerManager:125 calling notifyStartup on org.matsim.analysis.ScoreStats
2012-03-29 19:56:25,779  INFO ControlerListenerManager:128 all ControlerStartupListeners called.
2012-03-29 19:56:25,779  INFO Controler:730 Config dump before doIterations:
2012-03-29 19:56:25,781  INFO Controler:734 

<?xml version="1.0" encoding="UTF-8"?>
<!DOCTYPE config SYSTEM "http://www.matsim.org/files/dtd/config_v1.dtd">
<config>

<!-- ====================================================================== -->

	<module name="controler" >
		<param name="enableLinkToLinkRouting" value="false" />

		<!-- Specifies the file format for writing events. Currently supported: txt, xml. Multiple values can be specified separated by commas (','). -->
		<param name="eventsFileFormat" value="xml" />
		<param name="firstIteration" value="0" />
		<param name="lastIteration" value="2" />

		<!-- Defines which mobility simulation will be used. Currently supported: queueSimulation, qsim, jdeqsim, multimodalQSim -->
		<param name="mobsim" value="queueSimulation" />
		<param name="outputDirectory" value="./output/equil" />

		<!-- The type of routing (least cost path) algorithm used, may have the values: Dijkstra, FastDijkstra, AStarLandmarks or FastAStarLandmarks -->
		<param name="routingAlgorithmType" value="Dijkstra" />

		<!-- An identifier for the current run which is used as prefix for output files and mentioned in output xml files etc. -->
		<param name="runId" value="null" />

		<!-- Comma-separated list of visualizer output file formats. `transims', `googleearth', and `otfvis'. -->
		<param name="snapshotFormat" value="otfvis" />

		<!-- iterationNumber % writeEventsInterval == 0 defines in which iterations events are written to a file. `0' disables events writing completely. -->
		<param name="writeEventsInterval" value="0" />

		<!-- iterationNumber % writePlansInterval == 0 defines (hopefully) in which iterations plans are written to a file. `0' disables plans writing completely.  Some plans in early iterations are always written -->
		<param name="writePlansInterval" value="0" />

		<!-- iterationNumber % writeSnapshotsInterval == 0 defines in which iterations snapshots are written to a file. `0' disables snapshots writing completely -->
		<param name="writeSnapshotsInterval" value="1" />
	</module>

<!-- ====================================================================== -->

	<module name="counts" >

		<!-- Specifies over how many iterations the link volumes should be averaged that are used for the counts comparison. Use 1 or 0 to only use the link volumes of a single iteration. This values cannot be larger than the value specified for writeCountsInterval -->
		<param name="averageCountsOverIterations" value="5" />

		<!-- factor by which to re-scale the simulated values.  necessary when simulation runs with something different from 100%.  needs to be adapted manually -->
		<param name="countsScaleFactor" value="1.0" />

		<!-- distance to distanceFilterCenterNode to include counting stations. The unit of distance is the Euclidean distance implied by the coordinate system -->
		<param name="distanceFilter" value="null" />

		<!-- node id for center node of distance filter -->
		<param name="distanceFilterCenterNode" value="null" />

		<!-- input file name to counts package -->
		<param name="inputCountsFile" value="null" />

		<!-- possible values: `html', `kml', `txt', `all' -->
		<param name="outputformat" value="null" />

		<!-- Specifies how often the counts comparison should be calculated and written. -->
		<param name="writeCountsInterval" value="10" />
	</module>

<!-- ====================================================================== -->

	<module name="facilities" >
		<param name="inputFacilitiesFile" value="test/scenarios/equil/facilities.xml" />
	</module>

<!-- ====================================================================== -->

	<module name="global" >
		<param name="coordinateSystem" value="Atlantis" />
		<param name="numberOfThreads" value="2" />
		<param name="randomSeed" value="4711" />
	</module>

<!-- ====================================================================== -->

	<module name="households" >
		<param name="inputFile" value="null" />
	</module>

<!-- ====================================================================== -->

	<module name="linkStats" >

		<!-- Specifies over how many iterations the link volumes should be averaged that are used for the link statistics. Use 1 or 0 to only use the link volumes of a single iteration. This values cannot be larger than the value specified for writeLinkStatsInterval -->
		<param name="averageLinkStatsOverIterations" value="5" />

		<!-- Specifies how often the link stats should be calculated and written. Use 0 to disable the generation of link stats. -->
		<param name="writeLinkStatsInterval" value="10" />
	</module>

<!-- ====================================================================== -->

	<module name="locationchoice" >
		<param name="algorithm" value="null" />
		<param name="analysisBinSize" value="20000.0" />
		<param name="analysisBoundary" value="200000.0" />
		<param name="centerNode" value="null" />
		<param name="destinationSamplePercent" value="100.0" />
		<param name="epsilonDistribution" value="gumbel" />
		<param name="epsilonScaleFactors" value="null" />
		<param name="fkValuesFile" value="null" />
		<param name="flexible_types" value="null" />
		<param name="idExclusion" value="2147483647" />
		<param name="maxDistanceEpsilon" value="-1.0" />
		<param name="maxEpsFile" value="null" />
		<param name="maxRecursions" value="1" />
		<param name="pkValuesFile" value="null" />
		<param name="planSelector" value="SelectExpBeta" />
		<param name="probChoiceExponent" value="3" />
		<param name="probChoiceSetSize" value="10" />
		<param name="radius" value="null" />
		<param name="randomSeed" value="221177" />
		<param name="recursionTravelSpeed" value="8.5" />
		<param name="recursionTravelSpeedChange" value="0.1" />
		<param name="restraintFcnExp" value="0.0" />
		<param name="restraintFcnFactor" value="0.0" />
		<param name="scaleFactor" value="1" />
		<param name="tt_approximationLevel" value="0" />
	</module>

<!-- ====================================================================== -->

	<module name="multimodal" >

		<!-- Use this, if your network is not multi modal. Links with free speeds that are lower than the specified cutoff value will be usable for walk and bike trips. -->
		<param name="createMultiModalNetwork" value="false" />

		<!-- Only used, if createMultiModalNetwork is enabled (set value in m/s). -->
		<param name="cuttoffValueForNonCarModes" value="22.22222222222222" />
		<param name="dropNonCarRoutes" value="false" />
		<param name="multiModalSimulationEnabled" value="false" />

		<!-- Use number of threads > 1 for parallel version using the specified number of threads. -->
		<param name="numberOfThreads" value="1" />
		<param name="simulatedModes" value="pt,walk,ride,bike" />
	</module>

<!-- ====================================================================== -->

	<module name="network" >
		<param name="inputChangeEventsFile" value="null" />
		<param name="inputNetworkFile" value="test/scenarios/equil/network.xml" />
		<param name="laneDefinitionsFile" value="null" />
		<param name="timeVariantNetwork" value="false" />
	</module>

<!-- ====================================================================== -->

	<module name="otfvis" >

		<!-- The (initial) size of the agents.  Only a range of numbers is allowed, otherwise otfvis aborts rather ungracefully, or displays no agents at all. -->
		<param name="agentSize" value="120.0" />

		<!-- coloring scheme for otfvis.  Currently (2012) allowed values:null standard bvg bvg2 byId -->
		<param name="coloringScheme" value="standard" />
		<param name="leftMouseFunc" value="Zoom" />

		<!-- The (initial) width of the links of the network. Use positive floating point values. -->
		<param name="linkWidth" value="30.0" />

		<!-- Link width is proportional to `numberOfLanes' or to `capacity'. -->
		<param name="linkwidthIsProportionalTo" value="numberOfLanes" />

		<!-- Render everything on top of OpenStreetMap tiles. -->
		<param name="mapOverlayMode" value="false" />
		<param name="middleMouseFunc" value="Pan" />

		<!-- Shortens a link's start and end point in the visualization.  -->
		<param name="nodeOffset" value="0.0" />
		<param name="rightMouseFunc" value="Select" />
		<param name="showTeleportation" value="false" />
	</module>

<!-- ====================================================================== -->

	<module name="planCalcScore" >

		<!-- [1/utils] conversion factor of utility model for use in logit-based choice model.  Set to 1 if your utl function is estimated -->
		<param name="BrainExpBeta" value="2.0" />
		<param name="PathSizeLogitBeta" value="1.0" />
		<param name="activityClosingTime_0" value="undefined" />
		<param name="activityClosingTime_1" value="18:00:00" />
		<param name="activityEarliestEndTime_0" value="undefined" />
		<param name="activityEarliestEndTime_1" value="undefined" />
		<param name="activityLatestStartTime_0" value="undefined" />
		<param name="activityLatestStartTime_1" value="09:00:00" />
		<param name="activityMinimalDuration_0" value="08:00:00" />
		<param name="activityMinimalDuration_1" value="06:00:00" />
		<param name="activityOpeningTime_0" value="undefined" />
		<param name="activityOpeningTime_1" value="07:00:00" />
		<param name="activityPriority_0" value="1.0" />
		<param name="activityPriority_1" value="1.0" />
		<param name="activityType_0" value="h" />
		<param name="activityType_1" value="w" />
		<param name="activityTypicalDuration_0" value="12:00:00" />
		<param name="activityTypicalDuration_1" value="08:00:00" />

		<!-- [utils] alternative-specific constant for bike.  no guarantee that this is used anywhere. default=0 to be backwards compatible for the time being -->
		<param name="constantBike" value="0.0" />

		<!-- [utils] alternative-specific constant for car.  no guarantee that this is used anywhere. default=0 to be backwards compatible for the time being -->
		<param name="constantCar" value="0.0" />
		<param name="constantOther" value="0.0" />

		<!-- [utils] alternative-specific constant for pt.  no guarantee that this is used anywhere. default=0 to be backwards compatible for the time being -->
		<param name="constantPt" value="0.0" />

		<!-- [utils] alternative-specific constant for walk.  no guarantee that this is used anywhere. default=0 to be backwards compatible for the time being -->
		<param name="constantWalk" value="0.0" />

		<!-- [utils/hr] utility for departing early (i.e. before the earliest end time).  Probably implemented correctly, but not tested. -->
		<param name="earlyDeparture" value="-0.0" />

		<!-- [utils/hr] utility for arriving late (i.e. after the latest start time).  normally negative -->
		<param name="lateArrival" value="-18.0" />

		<!-- new_score = (1-learningRate)*old_score + learningRate * score_from_mobsim.  learning rates close to zero emulate score averaging, but slow down initial convergence -->
		<param name="learningRate" value="1.0" />

		<!-- [utils/unit_of_money] conversion of money (e.g. toll, distance cost) into utils -->
		<param name="marginalUtilityOfMoney" value="1.0" />
		<param name="marginalUtlOfDistanceOther" value="0.0" />

		<!-- DISCOURAGED! [utils/m] utility of walking per m, normally negative.  this is on top of the time (dis)utility.  It is discouraged to use this but in some cases it may make sense. -->
		<param name="marginalUtlOfDistanceWalk" value="0.0" />

		<!-- [unit_of_money/m] conversion of car distance into money. Probably needs to be negative to work. -->
		<param name="monetaryDistanceCostRateCar" value="0.0" />

		<!-- [unit_of_money/m] conversion of pt distance into money. Probably needs to be negative to work. -->
		<param name="monetaryDistanceCostRatePt" value="0.0" />

		<!-- [utils/hr] marginal utility of doing an activity.  normally positive.  also the opportunity cost of time if agent is doing nothing. -->
		<param name="performing" value="6.0" />

		<!-- [utils/hr] additional marginal utility of traveling by car.  normally negative.  this comes on top of the opportunity cost of time -->
		<param name="traveling" value="-6.0" />
		<param name="travelingBike" value="-6.0" />
		<param name="travelingOther" value="-6.0" />

		<!-- [utils/hr] additional marginal utility offset of traveling by pt.  normally negative.  this comes on top of the opportunity cost of time -->
		<param name="travelingPt" value="-6.0" />

		<!-- [utils/hr] additional marginal utility offset of traveling by foot.  normally negative.  this comes on top of the opportunity cost of time.  also see marginalUtlOfDistanceWalk -->
		<param name="travelingWalk" value="-6.0" />

		<!-- [utils] utility of switching a line (= transfer penalty).  Normally negative -->
		<param name="utilityOfLineSwitch" value="-1.0" />

		<!-- [utils/hr] utility offset for waiting.  this comes on top of the opportunity cost of time.  Probably implemented correctly, but not tested. -->
		<param name="waiting" value="-0.0" />
	</module>

<!-- ====================================================================== -->

	<module name="planomat" >
		<param name="doLogging" value="false" />
		<param name="jgapMaxGenerations" value="100" />
		<param name="levelOfTimeResolution" value="7" />
		<param name="populationSize" value="-2147483648" />
		<param name="possibleModes" value="" />
		<param name="routingCapability" value="fixedRoute" />
		<param name="simLegInterpretation" value="CetinCompatible" />
		<param name="tripStructureAnalysisLayer" value="facility" />
	</module>

<!-- ====================================================================== -->

	<module name="plans" >
		<param name="inputPlansFile" value="test/scenarios/equil/plans1.xml" />

		<!-- Defines how routes are stored in memory. Currently supported: LinkNetworkRoute, CompressedNetworkRoute. -->
		<param name="networkRouteType" value="LinkNetworkRoute" />
	</module>

<!-- ====================================================================== -->

	<module name="planscalcroute" >

		<!-- factor with which beeline distances (and therefore times) are multiplied in order to obtain an estimate of the network distances/times.  Default is something like 1.3 -->
		<param name="beelineDistanceFactor" value="1.3" />

		<!-- All the modes for which the router is supposed to generate network routes (like car) -->
		<param name="networkModes" value="car,ride" />

		<!-- Free-speed factor for a teleported mode based on freespeed: freespeedFactor * <freespeed car travel time>. Insert a line like this for every such mode. -->
		<param name="teleportedModeFreespeedFactor_pt" value="2.0" />

		<!-- Speed for a teleported mode based on beeline-distance: (<beeline distance> * beelineDistanceFactor) / speed. Insert a line like this for every such mode. -->
		<param name="teleportedModeSpeed_bike" value="4.166666666666667" />

		<!-- Speed for a teleported mode based on beeline-distance: (<beeline distance> * beelineDistanceFactor) / speed. Insert a line like this for every such mode. -->
		<param name="teleportedModeSpeed_undefined" value="13.88888888888889" />

		<!-- Speed for a teleported mode based on beeline-distance: (<beeline distance> * beelineDistanceFactor) / speed. Insert a line like this for every such mode. -->
		<param name="teleportedModeSpeed_walk" value="0.8333333333333333" />
	</module>

<!-- ====================================================================== -->

	<module name="ptCounts" >

		<!-- factor by which to re-scale the simulated values.  necessary when simulation runs with something different from 100%.  needs to be adapted manually -->
		<param name="countsScaleFactor" value="1.0" />

		<!-- distance to distanceFilterCenterNode to include counting stations. The unit of distance is the Euclidean distance implied by the coordinate system -->
		<param name="distanceFilter" value="null" />

		<!-- node id for center node of distance filter -->
		<param name="distanceFilterCenterNode" value="null" />

		<!-- input file containing the alighting (getting off) counts for pt -->
		<param name="inputAlightCountsFile" value="null" />

		<!-- input file containing the boarding (getting on) counts for pt -->
		<param name="inputBoardCountsFile" value="null" />

		<!-- input file containing the occupancy counts for pt -->
		<param name="inputOccupancyCountsFile" value="null" />

		<!-- possible values: `html', `kml', `txt', `all' -->
		<param name="outputformat" value="null" />

		<!-- every how many iterations (starting with 0) counts comparisons are generated -->
		<param name="ptCountsInterval" value="10" />
	</module>

<!-- ====================================================================== -->

	<module name="roadpricing" >
	</module>

<!-- ====================================================================== -->

	<module name="scenario" >

		<!-- Set this parameter to true if households should be used, false if not. -->
		<param name="useHouseholds" value="false" />

		<!-- Set this parameter to true if knowledge should be used, false if not. -->
		<param name="useKnowledge" value="true" />

		<!-- Set this parameter to true if lanes should be used, false if not. -->
		<param name="useLanes" value="false" />

		<!-- Set this parameter to true if roadpricing should be used, false if not. -->
		<param name="useRoadpricing" value="false" />

		<!-- Set this parameter to true if signal systems should be used, false if not. -->
		<param name="useSignalsystems" value="false" />

		<!-- Set this parameter to true if transit should be simulated, false if not. -->
		<param name="useTransit" value="false" />

		<!-- Set this parameter to true if vehicles should be used, false if not. -->
		<param name="useVehicles" value="false" />
	</module>

<!-- ====================================================================== -->

	<module name="signalsystems" >
		<param name="ambertimes" value="null" />
		<param name="intergreentimes" value="null" />
		<param name="signalcontrol" value="null" />
		<param name="signalgroups" value="null" />
		<param name="signalsystems" value="null" />
		<param name="useAmbertimes" value="false" />
		<param name="useIntergreentimes" value="false" />
	</module>

<!-- ====================================================================== -->

	<module name="simulation" >
		<param name="endTime" value="00:00:00" />
		<param name="flowCapacityFactor" value="1.0" />

		<!-- Boolean. `true': stuck vehicles are removed, aborting the plan; `false': stuck vehicles are forced into the next link. `false' is probably the better choice. -->
		<param name="removeStuckVehicles" value="true" />

		<!-- snapshotStyle: `equiDist' (vehicles equidistant on link) or `queue' (vehicles queued at end of link) -->
		<param name="snapshotStyle" value="equiDist" />
		<param name="snapshotperiod" value="00:10:00" />
		<param name="startTime" value="00:00:00" />
		<param name="storageCapacityFactor" value="1.0" />

		<!-- time in seconds.  Time after which the frontmost vehicle on a link is called `stuck' if it does not move. -->
		<param name="stuckTime" value="100.0" />
		<param name="timeStepSize" value="00:00:01" />
		<param name="timeout" value="3600" />
	</module>

<!-- ====================================================================== -->

	<module name="strategy" >
		<param name="ExternalExeConfigTemplate" value="null" />
		<param name="ExternalExeTimeOut" value="3600" />
		<param name="ExternalExeTmpFileRootDir" value="null" />

		<!-- iteration after which module will be disabled.  most useful for ``innovative'' strategies (new routes, new times, ...) -->
		<param name="ModuleDisableAfterIteration_1" value="null" />

		<!-- iteration after which module will be disabled.  most useful for ``innovative'' strategies (new routes, new times, ...) -->
		<param name="ModuleDisableAfterIteration_2" value="null" />

		<!-- path to external executable (if applicable) -->
		<param name="ModuleExePath_1" value="null" />

		<!-- path to external executable (if applicable) -->
		<param name="ModuleExePath_2" value="null" />

		<!-- probability that a strategy is applied to a given a person.  despite its name, this really is a ``weight'' -->
		<param name="ModuleProbability_1" value="0.9" />

		<!-- probability that a strategy is applied to a given a person.  despite its name, this really is a ``weight'' -->
		<param name="ModuleProbability_2" value="0.1" />

		<!-- name of strategy (if not full class name, resolved in StrategyManagerConfigLoader) -->
		<param name="Module_1" value="BestScore" />

		<!-- name of strategy (if not full class name, resolved in StrategyManagerConfigLoader) -->
		<param name="Module_2" value="ReRoute" />

		<!-- maximum number of plans per agent.  ``0'' means ``infinity''.  Currently (2010), ``5'' is a good number -->
		<param name="maxAgentPlanMemorySize" value="5" />

		<!-- name of PlanSelector for plans removal.  If not full class name, resolved in StrategyManagerConfigLoader.  default is `null', which eventually calls SelectWorstPlan. This is not a good choice from a discrete choice theoretical perspective. Alternatives, however, have not been systematically tested. kai, feb'12 -->
		<param name="planSelectorForRemoval" value="null" />
	</module>

<!-- ====================================================================== -->

	<module name="transit" >

		<!-- Comma-separated list of transportation modes that are handled as transit. Defaults to 'pt,bus,train,tram'. -->
		<param name="transitModes" value="pt" />

		<!-- Input file containing the transit schedule to be simulated. -->
		<param name="transitScheduleFile" value="null" />

		<!-- Input file containing the vehicles used by the departures in the transit schedule. -->
		<param name="vehiclesFile" value="null" />
	</module>

<!-- ====================================================================== -->

	<module name="transitRouter" >

		<!-- additional time the router allocates when a line switch happens, Can be interpreted as a 'savity' time that agents need to savely transfer from one line to another -->
		<param name="additionalTransferTime" value="0.0" />

		<!-- step size to increase searchRadius if no stops are found -->
		<param name="extensionRadius" value="200.0" />

		<!-- maximum beeline distance between stops that agents could transfer to by walking -->
		<param name="maxBeelineWalkConnectionDistance" value="100.0" />

		<!-- the radius in which stop locations are searched, given a start or target coordinate -->
		<param name="searchRadius" value="1000.0" />
	</module>

<!-- ====================================================================== -->

	<module name="travelTimeCalculator" >

		<!-- Transport modes that will be respected by the travel time collector. 'car' is default, which includes also bussed from the pt simulation module. Use this parameter in combination with 'filterModes' = true! -->
		<param name="analyzedModes" value="car" />
		<param name="calculateLinkToLinkTravelTimes" value="false" />
		<param name="calculateLinkTravelTimes" value="true" />

		<!-- If true, link travel times from legs performed on modes not included in the 'analyzedModes' parameter are ignored. -->
		<param name="filterModes" value="false" />

		<!-- How to deal with congested time bins that have no link entry events. `optimistic' assumes free speed (too optimistic); 'experimental_LastMile' is experimental and probably too pessimistic. -->
		<param name="travelTimeAggregator" value="optimistic" />

		<!-- The size of the time bin (in sec) into which the link travel times are aggregated for the router -->
		<param name="travelTimeBinSize" value="900" />
		<param name="travelTimeCalculator" value="TravelTimeCalculatorArray" />

		<!-- How to deal with link entry times at different positions during the time bin. Currently supported: average, linearinterpolation -->
		<param name="travelTimeGetter" value="average" />
	</module>

<!-- ====================================================================== -->

	<module name="vspExperimental" >

		<!-- String: minOfDurationAndEndTime', 'tryEndTimeThenDuration', 'endTimeOnly' -->
		<param name="activityDurationInterpretation" value="minOfDurationAndEndTime" />

		<!-- REQUIRED: file with HBEFA 3.1 fleet average cold emission factors -->
		<param name="averageFleetColdEmissionFactorsFile" value="null" />

		<!-- REQUIRED: file with HBEFA 3.1 fleet average warm emission factors -->
		<param name="averageFleetWarmEmissionFactorsFile" value="null" />

		<!-- (do not use) set chainBasedModes for subTourModeChoice by Yu. E.g. "car,bike", "car" -->
		<param name="chainBasedModes" value="car" />

		<!-- coloring scheme for otfvis.  Currently (2010) allowed values: ``standard'', ``bvg'' -->
		<param name="coloring" value="standard" />

		<!-- OPTIONAL: file with HBEFA 3.1 detailed cold emission factors -->
		<param name="detailedColdEmissionFactorsFile" value="null" />

		<!-- OPTIONAL: file with HBEFA 3.1 detailed warm emission factors -->
		<param name="detailedWarmEmissionFactorsFile" value="null" />

		<!-- REQUIRED: mapping from input road types to HBEFA 3.1 road type strings -->
		<param name="emissionRoadTypeMappingFile" value="null" />

		<!-- definition of a vehicle for every person (who is allowed to choose a vehicle in the simulation):
 - REQUIRED: vehicle type Id must start with the respective HbefaVehicleCategory followed by `;'
 - OPTIONAL: if detailed emission calculation is switched on, vehicle type Id should aditionally contain HbefaVehicleAttributes (`Technology;SizeClasse;EmConcept'), corresponding to the strings in detailedWarmEmissionFactorsFile -->
		<param name="emissionVehicleFile" value="null" />

		<!-- Set this filename of MZ05 daily analysis -->
		<param name="inputMZ05File" value="" />

		<!-- changes MATSim's global time format used in output files. Can be used to enforce writing fractional seconds e.g. in output_plans.  default is `hh:mm:ss' (because of backwards compatibility). see Time.java for possible formats -->
		<param name="matsimGlobalTimeformat" value="HH:mm:ss" />

		<!-- (do not use) set the traffic mode option for subTourModeChoice by Yu -->
		<param name="modes" value="car, pt" />

		<!-- (not yet implemented) will remove plan attributes that are presumably not used, such as activityStartTime. default=false -->
		<param name="removingUnnecessaryPlanAttributes" value="false" />

		<!-- if true then detailed emission factor files must be provided! -->
		<param name="usingDetailedEmissionCalculation" value="false" />

		<!-- indicates if, for routing, the opportunity cost of time should be added to the mode-specific marginal utilities of time.
		Default is false although some of us (bk, kn) think this should always be true.
		This is only a suggestion since there is (by matsim design) no way to enforce that mental modules obey this. -->
		<param name="usingOpportunityCostOfTimeForPtRouting" value="false" />

		<!-- Options: `ignore', `warn', `abort'.  Default: either `ignore' or `warn'.
		When violating VSP defaults, this results in nothing, warnings, or aborts.  Members of VSP should use `abort' or talk to kai. -->
		<param name="vspDefaultsCheckingLevel" value="ignore" />

		<!-- if true then writes output_events in output directory.  default is `false'. Will only work when lastIteration is multiple of events writing interval -->
		<param name="writingOutputEvents" value="false" />
	</module>

<!-- ====================================================================== -->

</config>

2012-03-29 19:56:25,785  INFO Controler:735 Complete config dump done.
2012-03-29 19:56:25,785  INFO Controler:736 Checking consistency of config...
2012-03-29 19:56:25,785  INFO VspExperimentalConfigGroup:338 entering checkVspDefaults ...
2012-03-29 19:56:25,785  INFO VspExperimentalConfigGroup:362 leaving checkVspDefaults ...
2012-03-29 19:56:25,786  INFO Controler:738 Checking consistency of config done.
2012-03-29 19:56:25,796  INFO Counter:51 [PersonPrepareForSim] handled person # 1
2012-03-29 19:56:25,796  INFO Counter:57 [PersonPrepareForSim] handled person # 1
2012-03-29 19:56:25,796  INFO Controler:486 ###################################################
2012-03-29 19:56:25,797  INFO Controler:487 ### ITERATION 0 BEGINS
2012-03-29 19:56:25,798  INFO ControlerListenerManager:158 calling notifyIterationStarts on org.matsim.core.controler.corelisteners.PlansScoring
2012-03-29 19:56:25,798  INFO ControlerListenerManager:163 calling notifyIterationStarts on org.matsim.core.controler.corelisteners.LinkStatsControlerListener
2012-03-29 19:56:25,798  INFO ControlerListenerManager:163 calling notifyIterationStarts on org.matsim.core.controler.corelisteners.LegHistogramListener
2012-03-29 19:56:25,798  INFO ControlerListenerManager:166 all ControlerIterationStartsListeners called.
2012-03-29 19:56:25,799  INFO ControlerListenerManager:238 calling notifyBeforeMobsim on org.matsim.core.controler.corelisteners.EventsHandling
2012-03-29 19:56:25,799  INFO EventsManagerImpl:187 resetting Event-Handlers
2012-03-29 19:56:25,800  INFO EventsManagerImpl:194   org.matsim.core.trafficmonitoring.TravelTimeCalculator
2012-03-29 19:56:25,800  INFO EventsManagerImpl:194   org.matsim.core.scoring.EventsToScore
2012-03-29 19:56:25,800  INFO EventsManagerImpl:194   org.matsim.analysis.VolumesAnalyzer
2012-03-29 19:56:25,801  INFO EventsManagerImpl:194   org.matsim.analysis.CalcLegTimes
2012-03-29 19:56:25,801  INFO EventsManagerImpl:194   org.matsim.analysis.LegHistogram
2012-03-29 19:56:25,801  INFO ControlerListenerManager:238 calling notifyBeforeMobsim on org.matsim.core.controler.corelisteners.PlansDumping
2012-03-29 19:56:25,801  INFO ControlerListenerManager:246 all ControlerBeforeMobsimListeners called.
2012-03-29 19:56:25,816  WARN QueueLink:410 Link 1 too small: enlarge storage capcity from: 1333.3333333333333 Vehicles to: 3599.712023038157 Vehicles.  This is not fatal, but modifies the traffic flow dynamics.
2012-03-29 19:56:25,817  WARN QueueLink:410 Link 20 too small: enlarge storage capcity from: 1333.3333333333333 Vehicles to: 3599.712023038157 Vehicles.  This is not fatal, but modifies the traffic flow dynamics.
2012-03-29 19:56:25,817  WARN QueueLink:410 Link 21 too small: enlarge storage capcity from: 1333.3333333333333 Vehicles to: 3599.712023038157 Vehicles.  This is not fatal, but modifies the traffic flow dynamics.
2012-03-29 19:56:25,817  WARN QueueLink:410 Link 22 too small: enlarge storage capcity from: 4666.666666666667 Vehicles to: 12598.99208063355 Vehicles.  This is not fatal, but modifies the traffic flow dynamics.
2012-03-29 19:56:25,817  WARN QueueLink:410 Link 23 too small: enlarge storage capcity from: 1333.3333333333333 Vehicles to: 3599.712023038157 Vehicles.  This is not fatal, but modifies the traffic flow dynamics.
2012-03-29 19:56:25,828  INFO MatsimConfigReader:101 using config_v1-reader.
2012-03-29 19:56:25,828  INFO MatsimXmlParser:215 Trying to load http://www.matsim.org/files/dtd/config_v1.dtd. In some cases (e.g. network interface up but no connection), this may take a bit.
2012-03-29 19:56:25,858  INFO Gbl:53 JVM: 1.6.0_29; Apple Inc.; mixed mode; 64-bit
2012-03-29 19:56:25,858  INFO Gbl:57 OS: Mac OS X; 10.7.3; x86_64
2012-03-29 19:56:25,859  INFO Gbl:60 CPU cores: 8
2012-03-29 19:56:25,859  INFO Gbl:61 max. Memory: 123.9375MB (129957888B)
2012-03-29 19:56:25,860  INFO Gbl:89 MATSim-Build: runknown (2012-03-29 19:46:07)
2012-03-29 19:56:25,860  INFO Controler:336 Used Controler-Class: org.matsim.core.controler.Controler
2012-03-29 19:56:25,860  INFO Controler:730 Complete config dump after reading the config file:
2012-03-29 19:56:25,863  INFO Controler:734 

<?xml version="1.0" encoding="UTF-8"?>
<!DOCTYPE config SYSTEM "http://www.matsim.org/files/dtd/config_v1.dtd">
<config>

<!-- ====================================================================== -->

	<module name="controler" >
		<param name="enableLinkToLinkRouting" value="false" />

		<!-- Specifies the file format for writing events. Currently supported: txt, xml. Multiple values can be specified separated by commas (','). -->
		<param name="eventsFileFormat" value="xml" />
		<param name="firstIteration" value="0" />
		<param name="lastIteration" value="2" />

		<!-- Defines which mobility simulation will be used. Currently supported: queueSimulation, qsim, jdeqsim, multimodalQSim -->
		<param name="mobsim" value="qsim" />
		<param name="outputDirectory" value="./output/equil" />

		<!-- The type of routing (least cost path) algorithm used, may have the values: Dijkstra, FastDijkstra, AStarLandmarks or FastAStarLandmarks -->
		<param name="routingAlgorithmType" value="Dijkstra" />

		<!-- An identifier for the current run which is used as prefix for output files and mentioned in output xml files etc. -->
		<param name="runId" value="null" />

		<!-- Comma-separated list of visualizer output file formats. `transims', `googleearth', and `otfvis'. -->
		<param name="snapshotFormat" value="otfvis" />

		<!-- iterationNumber % writeEventsInterval == 0 defines in which iterations events are written to a file. `0' disables events writing completely. -->
		<param name="writeEventsInterval" value="0" />

		<!-- iterationNumber % writePlansInterval == 0 defines (hopefully) in which iterations plans are written to a file. `0' disables plans writing completely.  Some plans in early iterations are always written -->
		<param name="writePlansInterval" value="0" />

		<!-- iterationNumber % writeSnapshotsInterval == 0 defines in which iterations snapshots are written to a file. `0' disables snapshots writing completely -->
		<param name="writeSnapshotsInterval" value="1" />
	</module>

<!-- ====================================================================== -->

	<module name="counts" >

		<!-- Specifies over how many iterations the link volumes should be averaged that are used for the counts comparison. Use 1 or 0 to only use the link volumes of a single iteration. This values cannot be larger than the value specified for writeCountsInterval -->
		<param name="averageCountsOverIterations" value="5" />

		<!-- factor by which to re-scale the simulated values.  necessary when simulation runs with something different from 100%.  needs to be adapted manually -->
		<param name="countsScaleFactor" value="1.0" />

		<!-- distance to distanceFilterCenterNode to include counting stations. The unit of distance is the Euclidean distance implied by the coordinate system -->
		<param name="distanceFilter" value="null" />

		<!-- node id for center node of distance filter -->
		<param name="distanceFilterCenterNode" value="null" />

		<!-- input file name to counts package -->
		<param name="inputCountsFile" value="null" />

		<!-- possible values: `html', `kml', `txt', `all' -->
		<param name="outputformat" value="null" />

		<!-- Specifies how often the counts comparison should be calculated and written. -->
		<param name="writeCountsInterval" value="10" />
	</module>

<!-- ====================================================================== -->

	<module name="facilities" >
		<param name="inputFacilitiesFile" value="test/scenarios/equil/facilities.xml" />
	</module>

<!-- ====================================================================== -->

	<module name="global" >
		<param name="coordinateSystem" value="Atlantis" />
		<param name="numberOfThreads" value="2" />
		<param name="randomSeed" value="4711" />
	</module>

<!-- ====================================================================== -->

	<module name="households" >
		<param name="inputFile" value="null" />
	</module>

<!-- ====================================================================== -->

	<module name="linkStats" >

		<!-- Specifies over how many iterations the link volumes should be averaged that are used for the link statistics. Use 1 or 0 to only use the link volumes of a single iteration. This values cannot be larger than the value specified for writeLinkStatsInterval -->
		<param name="averageLinkStatsOverIterations" value="5" />

		<!-- Specifies how often the link stats should be calculated and written. Use 0 to disable the generation of link stats. -->
		<param name="writeLinkStatsInterval" value="10" />
	</module>

<!-- ====================================================================== -->

	<module name="locationchoice" >
		<param name="algorithm" value="null" />
		<param name="analysisBinSize" value="20000.0" />
		<param name="analysisBoundary" value="200000.0" />
		<param name="centerNode" value="null" />
		<param name="destinationSamplePercent" value="100.0" />
		<param name="epsilonDistribution" value="gumbel" />
		<param name="epsilonScaleFactors" value="null" />
		<param name="fkValuesFile" value="null" />
		<param name="flexible_types" value="null" />
		<param name="idExclusion" value="2147483647" />
		<param name="maxDistanceEpsilon" value="-1.0" />
		<param name="maxEpsFile" value="null" />
		<param name="maxRecursions" value="1" />
		<param name="pkValuesFile" value="null" />
		<param name="planSelector" value="SelectExpBeta" />
		<param name="probChoiceExponent" value="3" />
		<param name="probChoiceSetSize" value="10" />
		<param name="radius" value="null" />
		<param name="randomSeed" value="221177" />
		<param name="recursionTravelSpeed" value="8.5" />
		<param name="recursionTravelSpeedChange" value="0.1" />
		<param name="restraintFcnExp" value="0.0" />
		<param name="restraintFcnFactor" value="0.0" />
		<param name="scaleFactor" value="1" />
		<param name="tt_approximationLevel" value="0" />
	</module>

<!-- ====================================================================== -->

	<module name="multimodal" >

		<!-- Use this, if your network is not multi modal. Links with free speeds that are lower than the specified cutoff value will be usable for walk and bike trips. -->
		<param name="createMultiModalNetwork" value="false" />

		<!-- Only used, if createMultiModalNetwork is enabled (set value in m/s). -->
		<param name="cuttoffValueForNonCarModes" value="22.22222222222222" />
		<param name="dropNonCarRoutes" value="false" />
		<param name="multiModalSimulationEnabled" value="false" />

		<!-- Use number of threads > 1 for parallel version using the specified number of threads. -->
		<param name="numberOfThreads" value="1" />
		<param name="simulatedModes" value="pt,walk,ride,bike" />
	</module>

<!-- ====================================================================== -->

	<module name="network" >
		<param name="inputChangeEventsFile" value="null" />
		<param name="inputNetworkFile" value="test/scenarios/equil/network.xml" />
		<param name="laneDefinitionsFile" value="null" />
		<param name="timeVariantNetwork" value="false" />
	</module>

<!-- ====================================================================== -->

	<module name="otfvis" >

		<!-- The (initial) size of the agents.  Only a range of numbers is allowed, otherwise otfvis aborts rather ungracefully, or displays no agents at all. -->
		<param name="agentSize" value="120.0" />

		<!-- coloring scheme for otfvis.  Currently (2012) allowed values:null standard bvg bvg2 byId -->
		<param name="coloringScheme" value="standard" />
		<param name="leftMouseFunc" value="Zoom" />

		<!-- The (initial) width of the links of the network. Use positive floating point values. -->
		<param name="linkWidth" value="30.0" />

		<!-- Link width is proportional to `numberOfLanes' or to `capacity'. -->
		<param name="linkwidthIsProportionalTo" value="numberOfLanes" />

		<!-- Render everything on top of OpenStreetMap tiles. -->
		<param name="mapOverlayMode" value="false" />
		<param name="middleMouseFunc" value="Pan" />

		<!-- Shortens a link's start and end point in the visualization.  -->
		<param name="nodeOffset" value="0.0" />
		<param name="rightMouseFunc" value="Select" />
		<param name="showTeleportation" value="false" />
	</module>

<!-- ====================================================================== -->

	<module name="planCalcScore" >

		<!-- [1/utils] conversion factor of utility model for use in logit-based choice model.  Set to 1 if your utl function is estimated -->
		<param name="BrainExpBeta" value="2.0" />
		<param name="PathSizeLogitBeta" value="1.0" />
		<param name="activityClosingTime_0" value="undefined" />
		<param name="activityClosingTime_1" value="18:00:00" />
		<param name="activityEarliestEndTime_0" value="undefined" />
		<param name="activityEarliestEndTime_1" value="undefined" />
		<param name="activityLatestStartTime_0" value="undefined" />
		<param name="activityLatestStartTime_1" value="09:00:00" />
		<param name="activityMinimalDuration_0" value="08:00:00" />
		<param name="activityMinimalDuration_1" value="06:00:00" />
		<param name="activityOpeningTime_0" value="undefined" />
		<param name="activityOpeningTime_1" value="07:00:00" />
		<param name="activityPriority_0" value="1.0" />
		<param name="activityPriority_1" value="1.0" />
		<param name="activityType_0" value="h" />
		<param name="activityType_1" value="w" />
		<param name="activityTypicalDuration_0" value="12:00:00" />
		<param name="activityTypicalDuration_1" value="08:00:00" />

		<!-- [utils] alternative-specific constant for bike.  no guarantee that this is used anywhere. default=0 to be backwards compatible for the time being -->
		<param name="constantBike" value="0.0" />

[...]
2012-03-29 20:03:39,190  INFO ScoreStats:190 -- avg. score of the best plan of each agent: 100.87798091385994
2012-03-29 20:03:39,190  INFO ControlerListenerManager:183 calling notifyIterationEnds on org.matsim.core.controler.corelisteners.LegHistogramListener
2012-03-29 20:03:39,202  INFO LegHistogramListener:76 number of legs:	3	100%
2012-03-29 20:03:39,203  INFO LegHistogramListener:83 number of car legs:	3	100.0%
2012-03-29 20:03:39,203  INFO ControlerListenerManager:186 all ControlerIterationEndsListeners called.
2012-03-29 20:03:39,204  INFO Controler:513 ### ITERATION 0 ENDS
2012-03-29 20:03:39,204  INFO Controler:514 ###################################################
2012-03-29 20:03:39,204  INFO Controler:486 ###################################################
2012-03-29 20:03:39,204  INFO Controler:487 ### ITERATION 1 BEGINS
2012-03-29 20:03:39,204  INFO Controler:927 Iteration directory ./output/equil/ITERS/it.1 exists already.
2012-03-29 20:03:39,204  INFO ControlerListenerManager:158 calling notifyIterationStarts on org.matsim.core.controler.corelisteners.PlansScoring
2012-03-29 20:03:39,204  INFO ControlerListenerManager:163 calling notifyIterationStarts on org.matsim.core.controler.corelisteners.LinkStatsControlerListener
2012-03-29 20:03:39,204  INFO ControlerListenerManager:163 calling notifyIterationStarts on org.matsim.core.controler.corelisteners.LegHistogramListener
2012-03-29 20:03:39,205  INFO ControlerListenerManager:166 all ControlerIterationStartsListeners called.
2012-03-29 20:03:39,205  INFO ControlerListenerManager:218 calling notifyReplanning on org.matsim.core.controler.corelisteners.PlansReplanning
2012-03-29 20:03:39,205  INFO PlanStrategyImpl:126 Plan-Strategy finished, 1 plans handled. Strategy: BestPlanSelector
2012-03-29 20:03:39,205  INFO AbstractMultithreadedModule:100 [PlansCalcRoute] starting threads, handling 0 plans
2012-03-29 20:03:39,205  INFO AbstractMultithreadedModule:115 [PlansCalcRoute] all threads finished.
2012-03-29 20:03:39,206  INFO PlanStrategyImpl:126 Plan-Strategy finished, 0 plans handled. Strategy: RandomPlanSelector_ReRoute
2012-03-29 20:03:39,206  INFO ControlerListenerManager:226 all ControlerReplanningListeners called.
2012-03-29 20:03:39,206  INFO ControlerListenerManager:238 calling notifyBeforeMobsim on org.matsim.core.controler.corelisteners.EventsHandling
2012-03-29 20:03:39,206  INFO EventsManagerImpl:187 resetting Event-Handlers
2012-03-29 20:03:39,206  INFO EventsManagerImpl:194   org.matsim.core.trafficmonitoring.TravelTimeCalculator
2012-03-29 20:03:39,206  INFO EventsManagerImpl:194   org.matsim.core.scoring.EventsToScore
2012-03-29 20:03:39,206  INFO EventsManagerImpl:194   org.matsim.analysis.VolumesAnalyzer
2012-03-29 20:03:39,207  INFO EventsManagerImpl:194   org.matsim.analysis.CalcLegTimes
2012-03-29 20:03:39,207  INFO EventsManagerImpl:194   org.matsim.analysis.LegHistogram
2012-03-29 20:03:39,207  INFO ControlerListenerManager:238 calling notifyBeforeMobsim on org.matsim.core.controler.corelisteners.PlansDumping
2012-03-29 20:03:39,207  INFO ControlerListenerManager:246 all ControlerBeforeMobsimListeners called.
2012-03-29 20:03:39,207  INFO QSim:216 Using QSim...
2012-03-29 20:03:39,207  WARN QLinkImpl:536 Link 1 too small: enlarge storage capacity from: 1333.3333333333333 Vehicles to: 3599.712023038157 Vehicles.  This is not fatal, but modifies the traffic flow dynamics.
2012-03-29 20:03:39,208  WARN QLinkImpl:536 Link 20 too small: enlarge storage capacity from: 1333.3333333333333 Vehicles to: 3599.712023038157 Vehicles.  This is not fatal, but modifies the traffic flow dynamics.
2012-03-29 20:03:39,208  WARN QLinkImpl:536 Link 21 too small: enlarge storage capacity from: 1333.3333333333333 Vehicles to: 3599.712023038157 Vehicles.  This is not fatal, but modifies the traffic flow dynamics.
2012-03-29 20:03:39,208  WARN QLinkImpl:536 Link 22 too small: enlarge storage capacity from: 4666.666666666667 Vehicles to: 12598.99208063355 Vehicles.  This is not fatal, but modifies the traffic flow dynamics.
2012-03-29 20:03:39,208  WARN QLinkImpl:536 Link 23 too small: enlarge storage capacity from: 1333.3333333333333 Vehicles to: 3599.712023038157 Vehicles.  This is not fatal, but modifies the traffic flow dynamics.
2012-03-29 20:03:39,300  INFO SimulationListenerManager:58 calling addQueueSimulationListener
2012-03-29 20:03:39,300  INFO SimulationListenerManager:62   assigned class org.matsim.core.mobsim.framework.listeners.SimulationListener to interface org.matsim.core.mobsim.framework.listeners.SimulationInitializedListener
2012-03-29 20:03:39,300  INFO SimulationListenerManager:62   assigned class org.matsim.core.mobsim.framework.listeners.SimulationListener to interface org.matsim.core.mobsim.framework.listeners.SimulationListener
2012-03-29 20:03:39,301  INFO SimulationListenerManager:62   assigned class org.matsim.core.mobsim.framework.listeners.SimulationListener to interface org.matsim.core.mobsim.framework.listeners.SimulationAfterSimStepListener
2012-03-29 20:03:39,301  INFO SimulationListenerManager:62   assigned class org.matsim.core.mobsim.framework.listeners.SimulationListener to interface org.matsim.vis.snapshotwriters.SnapshotWriterManager
2012-03-29 20:03:39,301  INFO SimulationListenerManager:62   assigned class org.matsim.core.mobsim.framework.listeners.SimulationListener to interface org.matsim.core.mobsim.framework.listeners.SimulationBeforeCleanupListener
2012-03-29 20:03:39,302  INFO EventsManagerImpl:147  event # 1
2012-03-29 20:03:39,302  INFO EventsManagerImpl:147  event # 2
2012-03-29 20:03:39,302  INFO EventsManagerImpl:147  event # 4
2012-03-29 20:03:39,303  INFO QSim:651 SIMULATION (NEW QSim) AT 06:00:00 : #Veh=1 lost=0 #links=1 #nodes=0 simT=0.0s realT=0s; (s/r): 0.0
2012-03-29 20:03:39,303  INFO Gbl:48 used RAM: 352446760B = 344186kB = 336MB  free: 308127448B = 293MB  total: 660574208B = 629MB
2012-03-29 20:03:39,304  INFO EventsManagerImpl:147  event # 8
2012-03-29 20:03:39,308  INFO EventsManagerImpl:147  event # 16
2012-03-29 20:03:39,314  INFO QSim:651 SIMULATION (NEW QSim) AT 07:00:00 : #Veh=1 lost=0 #links=3 #nodes=0 simT=3600.0s realT=0s; (s/r): Infinity
2012-03-29 20:03:39,315  INFO Gbl:48 used RAM: 353276336B = 344996kB = 336MB  free: 307297872B = 293MB  total: 660574208B = 629MB
2012-03-29 20:03:39,328  INFO QSim:651 SIMULATION (NEW QSim) AT 08:00:00 : #Veh=1 lost=0 #links=3 #nodes=0 simT=7200.0s realT=0s; (s/r): Infinity
2012-03-29 20:03:39,328  INFO Gbl:48 used RAM: 354105912B = 345806kB = 337MB  free: 306468296B = 292MB  total: 660574208B = 629MB
2012-03-29 20:03:39,337  INFO QSim:651 SIMULATION (NEW QSim) AT 09:00:00 : #Veh=1 lost=0 #links=3 #nodes=0 simT=10800.0s realT=0s; (s/r): Infinity
2012-03-29 20:03:39,337  INFO Gbl:48 used RAM: 354935496B = 346616kB = 338MB  free: 305638712B = 291MB  total: 660574208B = 629MB
2012-03-29 20:03:39,345  INFO QSim:651 SIMULATION (NEW QSim) AT 10:00:00 : #Veh=1 lost=0 #links=4 #nodes=0 simT=14400.0s realT=0s; (s/r): Infinity
2012-03-29 20:03:39,345  INFO Gbl:48 used RAM: 355765072B = 347426kB = 339MB  free: 304809136B = 290MB  total: 660574208B = 629MB
2012-03-29 20:03:39,350  INFO EventsManagerImpl:147  event # 32
2012-03-29 20:03:39,350  INFO Controler:505 ### ITERATION 1 fires after mobsim event
2012-03-29 20:03:39,351  INFO ControlerListenerManager:259 calling notifyAfterMobsim on org.matsim.core.controler.corelisteners.EventsHandling
2012-03-29 20:03:39,351  INFO EventsHandling:103 [1] average trip (probably: leg) duration is: 1080 seconds = 00:18:00
2012-03-29 20:03:39,351  INFO ControlerListenerManager:267 all ControlerAfterMobsimListeners called.
2012-03-29 20:03:39,351  INFO Controler:507 ### ITERATION 1 fires scoring event
2012-03-29 20:03:39,351  INFO ControlerListenerManager:198 calling notifyScoring on org.matsim.core.controler.corelisteners.PlansScoring
2012-03-29 20:03:39,351  INFO ControlerListenerManager:206 all ControlerScoringListeners called.
2012-03-29 20:03:39,351  INFO Controler:509 ### ITERATION 1 fires iteration end event
2012-03-29 20:03:39,352  INFO ControlerListenerManager:178 calling notifyIterationEnds on org.matsim.core.controler.corelisteners.EventsHandling
2012-03-29 20:03:39,352  INFO ControlerListenerManager:183 calling notifyIterationEnds on org.matsim.core.controler.corelisteners.LinkStatsControlerListener
2012-03-29 20:03:39,352  INFO ControlerListenerManager:183 calling notifyIterationEnds on org.matsim.analysis.TravelDistanceStats
2012-03-29 20:03:39,352  INFO TravelDistanceStats:142 [TravelDistanceStats] using 2 thread(s).
2012-03-29 20:03:39,352  INFO TravelDistanceStats:155 [TravelDistanceStats] all threads finished.
2012-03-29 20:03:39,352  INFO TravelDistanceStats:184 -- average of the average leg distance per plan (executed plans only): 23333.333333333332
2012-03-29 20:03:39,353  INFO TravelDistanceStats:185 -- average of the average leg distance per plan (worst plans only): 23333.333333333332
2012-03-29 20:03:39,353  INFO TravelDistanceStats:186 -- average of the average leg distance per plan (all plans): 23333.333333333332
2012-03-29 20:03:39,353  INFO TravelDistanceStats:187 -- average of the average leg distance per plan (best plans only): 23333.333333333332
2012-03-29 20:03:39,353  INFO ControlerListenerManager:183 calling notifyIterationEnds on org.matsim.analysis.ScoreStats
2012-03-29 20:03:39,353  INFO ScoreStats:182 -- avg. score of the executed plan of each agent: 100.87798091385994
2012-03-29 20:03:39,353  INFO ScoreStats:188 -- avg. score of the worst plan of each agent: 100.87798091385994
2012-03-29 20:03:39,353  INFO ScoreStats:189 -- avg. of the avg. plan score per agent: 100.87798091385994
2012-03-29 20:03:39,354  INFO ScoreStats:190 -- avg. score of the best plan of each agent: 100.87798091385994
2012-03-29 20:03:39,354  INFO ControlerListenerManager:183 calling notifyIterationEnds on org.matsim.core.controler.corelisteners.LegHistogramListener
2012-03-29 20:03:39,363  INFO LegHistogramListener:76 number of legs:	3	100%
2012-03-29 20:03:39,363  INFO LegHistogramListener:83 number of car legs:	3	100.0%
2012-03-29 20:03:39,364  INFO ControlerListenerManager:186 all ControlerIterationEndsListeners called.
2012-03-29 20:03:39,364  INFO Controler:513 ### ITERATION 1 ENDS
2012-03-29 20:03:39,364  INFO Controler:514 ###################################################
2012-03-29 20:03:39,365  INFO Controler:486 ###################################################
2012-03-29 20:03:39,365  INFO Controler:487 ### ITERATION 2 BEGINS
2012-03-29 20:03:39,365  INFO Controler:927 Iteration directory ./output/equil/ITERS/it.2 exists already.
2012-03-29 20:03:39,365  INFO ControlerListenerManager:158 calling notifyIterationStarts on org.matsim.core.controler.corelisteners.PlansScoring
2012-03-29 20:03:39,365  INFO ControlerListenerManager:163 calling notifyIterationStarts on org.matsim.core.controler.corelisteners.LinkStatsControlerListener
2012-03-29 20:03:39,365  INFO ControlerListenerManager:163 calling notifyIterationStarts on org.matsim.core.controler.corelisteners.LegHistogramListener
2012-03-29 20:03:39,365  INFO ControlerListenerManager:166 all ControlerIterationStartsListeners called.
2012-03-29 20:03:39,365  INFO ControlerListenerManager:218 calling notifyReplanning on org.matsim.core.controler.corelisteners.PlansReplanning
2012-03-29 20:03:39,366  INFO PlanStrategyImpl:126 Plan-Strategy finished, 1 plans handled. Strategy: BestPlanSelector
2012-03-29 20:03:39,366  INFO AbstractMultithreadedModule:100 [PlansCalcRoute] starting threads, handling 0 plans
2012-03-29 20:03:39,366  INFO AbstractMultithreadedModule:115 [PlansCalcRoute] all threads finished.
2012-03-29 20:03:39,366  INFO PlanStrategyImpl:126 Plan-Strategy finished, 0 plans handled. Strategy: RandomPlanSelector_ReRoute
2012-03-29 20:03:39,367  INFO ControlerListenerManager:226 all ControlerReplanningListeners called.
2012-03-29 20:03:39,367  INFO ControlerListenerManager:238 calling notifyBeforeMobsim on org.matsim.core.controler.corelisteners.EventsHandling
2012-03-29 20:03:39,367  INFO EventsManagerImpl:187 resetting Event-Handlers
2012-03-29 20:03:39,367  INFO EventsManagerImpl:194   org.matsim.core.trafficmonitoring.TravelTimeCalculator
2012-03-29 20:03:39,367  INFO EventsManagerImpl:194   org.matsim.core.scoring.EventsToScore
2012-03-29 20:03:39,367  INFO EventsManagerImpl:194   org.matsim.analysis.VolumesAnalyzer
2012-03-29 20:03:39,368  INFO EventsManagerImpl:194   org.matsim.analysis.CalcLegTimes
2012-03-29 20:03:39,368  INFO EventsManagerImpl:194   org.matsim.analysis.LegHistogram
2012-03-29 20:03:39,368  INFO ControlerListenerManager:238 calling notifyBeforeMobsim on org.matsim.core.controler.corelisteners.PlansDumping
2012-03-29 20:03:39,368  INFO ControlerListenerManager:246 all ControlerBeforeMobsimListeners called.
2012-03-29 20:03:39,368  INFO QSim:216 Using QSim...
2012-03-29 20:03:39,368  WARN QLinkImpl:536 Link 1 too small: enlarge storage capacity from: 1333.3333333333333 Vehicles to: 3599.712023038157 Vehicles.  This is not fatal, but modifies the traffic flow dynamics.
2012-03-29 20:03:39,369  WARN QLinkImpl:539 Additional warnings of this type are suppressed.
2012-03-29 20:03:39,456  INFO SimulationListenerManager:58 calling addQueueSimulationListener
2012-03-29 20:03:39,457  INFO SimulationListenerManager:62   assigned class org.matsim.core.mobsim.framework.listeners.SimulationListener to interface org.matsim.core.mobsim.framework.listeners.SimulationInitializedListener
2012-03-29 20:03:39,457  INFO SimulationListenerManager:62   assigned class org.matsim.core.mobsim.framework.listeners.SimulationListener to interface org.matsim.core.mobsim.framework.listeners.SimulationListener
2012-03-29 20:03:39,457  INFO SimulationListenerManager:62   assigned class org.matsim.core.mobsim.framework.listeners.SimulationListener to interface org.matsim.core.mobsim.framework.listeners.SimulationAfterSimStepListener
2012-03-29 20:03:39,457  INFO SimulationListenerManager:62   assigned class org.matsim.core.mobsim.framework.listeners.SimulationListener to interface org.matsim.vis.snapshotwriters.SnapshotWriterManager
2012-03-29 20:03:39,457  INFO SimulationListenerManager:62   assigned class org.matsim.core.mobsim.framework.listeners.SimulationListener to interface org.matsim.core.mobsim.framework.listeners.SimulationBeforeCleanupListener
2012-03-29 20:03:39,457  INFO EventsManagerImpl:147  event # 1
2012-03-29 20:03:39,458  INFO EventsManagerImpl:147  event # 2
2012-03-29 20:03:39,458  INFO EventsManagerImpl:147  event # 4
2012-03-29 20:03:39,458  INFO QSim:651 SIMULATION (NEW QSim) AT 06:00:00 : #Veh=1 lost=0 #links=1 #nodes=0 simT=0.0s realT=0s; (s/r): 0.0
2012-03-29 20:03:39,458  INFO Gbl:48 used RAM: 352617344B = 344352kB = 336MB  free: 307956864B = 293MB  total: 660574208B = 629MB
2012-03-29 20:03:39,459  INFO EventsManagerImpl:147  event # 8
2012-03-29 20:03:39,460  INFO EventsManagerImpl:147  event # 16
2012-03-29 20:03:39,461  INFO QSim:651 SIMULATION (NEW QSim) AT 07:00:00 : #Veh=1 lost=0 #links=3 #nodes=0 simT=3600.0s realT=0s; (s/r): Infinity
2012-03-29 20:03:39,461  INFO Gbl:48 used RAM: 353284144B = 345004kB = 336MB  free: 307290064B = 293MB  total: 660574208B = 629MB
2012-03-29 20:03:39,463  INFO QSim:651 SIMULATION (NEW QSim) AT 08:00:00 : #Veh=1 lost=0 #links=3 #nodes=0 simT=7200.0s realT=0s; (s/r): Infinity
2012-03-29 20:03:39,463  INFO Gbl:48 used RAM: 354284504B = 345980kB = 337MB  free: 306289704B = 292MB  total: 660574208B = 629MB
2012-03-29 20:03:39,465  INFO QSim:651 SIMULATION (NEW QSim) AT 09:00:00 : #Veh=1 lost=0 #links=3 #nodes=0 simT=10800.0s realT=0s; (s/r): Infinity
2012-03-29 20:03:39,465  INFO Gbl:48 used RAM: 354951296B = 346632kB = 338MB  free: 305622912B = 291MB  total: 660574208B = 629MB
2012-03-29 20:03:39,468  INFO QSim:651 SIMULATION (NEW QSim) AT 10:00:00 : #Veh=1 lost=0 #links=4 #nodes=0 simT=14400.0s realT=0s; (s/r): Infinity
2012-03-29 20:03:39,468  INFO Gbl:48 used RAM: 355618096B = 347283kB = 339MB  free: 304956112B = 290MB  total: 660574208B = 629MB
2012-03-29 20:03:39,469  INFO EventsManagerImpl:147  event # 32
2012-03-29 20:03:39,470  INFO Controler:505 ### ITERATION 2 fires after mobsim event
2012-03-29 20:03:39,470  INFO ControlerListenerManager:259 calling notifyAfterMobsim on org.matsim.core.controler.corelisteners.EventsHandling
2012-03-29 20:03:39,470  INFO EventsHandling:103 [2] average trip (probably: leg) duration is: 1080 seconds = 00:18:00
2012-03-29 20:03:39,470  INFO ControlerListenerManager:267 all ControlerAfterMobsimListeners called.
2012-03-29 20:03:39,470  INFO Controler:507 ### ITERATION 2 fires scoring event
2012-03-29 20:03:39,471  INFO ControlerListenerManager:198 calling notifyScoring on org.matsim.core.controler.corelisteners.PlansScoring
2012-03-29 20:03:39,471  INFO ControlerListenerManager:206 all ControlerScoringListeners called.
2012-03-29 20:03:39,471  INFO Controler:509 ### ITERATION 2 fires iteration end event
2012-03-29 20:03:39,471  INFO ControlerListenerManager:178 calling notifyIterationEnds on org.matsim.core.controler.corelisteners.EventsHandling
2012-03-29 20:03:39,471  INFO ControlerListenerManager:183 calling notifyIterationEnds on org.matsim.core.controler.corelisteners.LinkStatsControlerListener
2012-03-29 20:03:39,471  INFO ControlerListenerManager:183 calling notifyIterationEnds on org.matsim.analysis.TravelDistanceStats
2012-03-29 20:03:39,471  INFO TravelDistanceStats:142 [TravelDistanceStats] using 2 thread(s).
2012-03-29 20:03:39,472  INFO TravelDistanceStats:155 [TravelDistanceStats] all threads finished.
2012-03-29 20:03:39,472  INFO TravelDistanceStats:184 -- average of the average leg distance per plan (executed plans only): 23333.333333333332
2012-03-29 20:03:39,472  INFO TravelDistanceStats:185 -- average of the average leg distance per plan (worst plans only): 23333.333333333332
2012-03-29 20:03:39,472  INFO TravelDistanceStats:186 -- average of the average leg distance per plan (all plans): 23333.333333333332
2012-03-29 20:03:39,472  INFO TravelDistanceStats:187 -- average of the average leg distance per plan (best plans only): 23333.333333333332
2012-03-29 20:03:39,473  INFO ControlerListenerManager:183 calling notifyIterationEnds on org.matsim.analysis.ScoreStats
2012-03-29 20:03:39,473  INFO ScoreStats:182 -- avg. score of the executed plan of each agent: 100.87798091385994
2012-03-29 20:03:39,473  INFO ScoreStats:188 -- avg. score of the worst plan of each agent: 100.87798091385994
2012-03-29 20:03:39,473  INFO ScoreStats:189 -- avg. of the avg. plan score per agent: 100.87798091385994
2012-03-29 20:03:39,473  INFO ScoreStats:190 -- avg. score of the best plan of each agent: 100.87798091385994
2012-03-29 20:03:39,473  INFO ControlerListenerManager:183 calling notifyIterationEnds on org.matsim.core.controler.corelisteners.LegHistogramListener
2012-03-29 20:03:39,483  INFO LegHistogramListener:76 number of legs:	3	100%
2012-03-29 20:03:39,484  INFO LegHistogramListener:83 number of car legs:	3	100.0%
2012-03-29 20:03:39,484  INFO ControlerListenerManager:186 all ControlerIterationEndsListeners called.
2012-03-29 20:03:39,485  INFO Controler:513 ### ITERATION 2 ENDS
2012-03-29 20:03:39,485  INFO Controler:514 ###################################################
2012-03-29 20:03:39,485  INFO Controler:526 S H U T D O W N   ---   start regular shutdown.
2012-03-29 20:03:39,486  INFO ControlerListenerManager:139 calling notifyShutdown on org.matsim.core.controler.corelisteners.EventsHandling
2012-03-29 20:03:39,486  INFO ControlerListenerManager:144 calling notifyShutdown on org.matsim.analysis.TravelDistanceStats
2012-03-29 20:03:39,486  INFO ControlerListenerManager:144 calling notifyShutdown on org.matsim.analysis.ScoreStats
2012-03-29 20:03:39,486  INFO ControlerListenerManager:147 all ControlerShutdownListeners called.
2012-03-29 20:03:39,486  INFO Controler:569 S H U T D O W N   ---   regular shutdown completed.
